Network_83R-130/scenario_71/case.raw
0,100.0,33,0,1,60.0
GRID OPTIMIZATION COMPETITION
INPUT DATA FILES ARE RAW ROP INL CON
35308,'East Bend',500.0,2,1,1,1,1.0,-16.824267,1.1,0.9,1.1,0.9
35309,'Paradise',500.0,2,1,1,1,1.01001096,-10.951521,1.1,0.9,1.1,0.9
35310,'Trimble Co~1',500.0,2,1,1,1,1.01996291,-16.639362,1.1,0.9,1.1,0.9
35311,'Ghent',500.0,2,1,1,1,1.0,-14.880424,1.1,0.9,1.1,0.9
35312,'D B Wilson',500.0,1,1,1,1,1.02008712,-12.860579,1.1,0.9,1.1,0.9
35313,'Mill Creek~1',500.0,1,1,1,1,1.00188005,-18.391746,1.1,0.9,1.1,0.9
35314,'H L Spurlock',500.0,1,1,1,1,1.01741862,-19.070395,1.1,0.9,1.1,0.9
35315,'R D Green',500.0,1,1,1,1,1.01894379,-11.293577,1.1,0.9,1.1,0.9
35316,'Big Sandy',500.0,2,1,1,1,1.01999998,-20.808294,1.1,0.9,1.1,0.9
35317,'Riverside ~1',500.0,1,1,1,1,1.02024972,-20.940988,1.1,0.9,1.1,0.9
35318,'Bluegrass ~1',500.0,1,1,1,1,1.00217986,-18.575787,1.1,0.9,1.1,0.9
35319,'HMP&L Stat~1',500.0,1,1,1,1,1.01723623,-10.197466,1.1,0.9,1.1,0.9
35320,'Kenneth C ~1',500.0,1,1,1,1,1.0172869,-14.511756,1.1,0.9,1.1,0.9
35321,'Shawnee',500.0,1,1,1,1,1.00834465,-3.038616,1.1,0.9,1.1,0.9
35322,'Cane Run',500.0,2,1,1,1,0.99994099,-17.948759,1.1,0.9,1.1,0.9
35323,'Elmer Smith',500.0,2,1,1,1,1.01999998,-12.944423,1.1,0.9,1.1,0.9
35324,'E W Brown',500.0,1,1,1,1,1.01694727,-21.704118,1.1,0.9,1.1,0.9
35325,'Cooper',500.0,1,1,1,1,1.02432549,-22.784598,1.1,0.9,1.1,0.9
35326,'Robert A R~1',138.0,2,1,1,1,1.01999998,-8.327105,1.1,0.9,1.1,0.9
35327,'J K Smith',500.0,1,1,1,1,1.01529205,-22.45745,1.1,0.9,1.1,0.9
35328,'Kentucky M~1',138.0,1,1,1,1,0.99276006,-15.272376,1.1,0.9,1.1,0.9
35329,'Marshall E~1',500.0,1,1,1,1,1.01053512,-5.219242,1.1,0.9,1.1,0.9
35330,'Ohio Falls',138.0,2,1,1,1,0.97697711,-20.982201,1.1,0.9,1.1,0.9
35331,'Green River',138.0,2,1,1,1,1.01999998,-9.948527,1.1,0.9,1.1,0.9
35332,'Tyrone',138.0,2,1,1,1,0.97699618,-23.460604,1.1,0.9,1.1,0.9
35333,'Laurel Dam',500.0,2,1,1,1,1.02287459,-23.002047,1.1,0.9,1.1,0.9
35334,'PPS Power ~1',230.0,1,1,1,1,1.00867248,-5.79512,1.1,0.9,1.1,0.9
35335,'Wolf Creek',138.0,2,1,1,1,1.01999998,-20.818222,1.1,0.9,1.1,0.9
35336,'Kentucky Dam',138.0,2,1,1,1,1.01999998,-4.652115,1.1,0.9,1.1,0.9
35337,'Paddys Run',138.0,2,1,1,1,0.99014062,-19.990955,1.1,0.9,1.1,0.9
35338,'Barkley',345.0,1,1,1,1,1.01003218,-6.35702,1.1,0.9,1.1,0.9
35339,'Dix Dam',500.0,1,1,1,1,1.01710296,-21.652758,1.1,0.9,1.1,0.9
35340,'Dale',345.0,1,1,1,1,1.0052489,-22.825319,1.1,0.9,1.1,0.9
35341,'Calvert City',500.0,1,1,1,1,1.01111805,-5.55628,1.1,0.9,1.1,0.9
35342,'Haefling',138.0,1,1,1,1,0.98966581,-24.820407,1.1,0.9,1.1,0.9
35377,'Cumberland~1',500.0,1,1,1,1,1.00183022,-5.734742,1.1,0.9,1.1,0.9
35378,'Watts Bar ~3',500.0,1,1,1,1,1.01989591,-12.223295,1.1,0.9,1.1,0.9
35379,'Sequoyah',500.0,2,1,1,1,1.00005758,-9.991957,1.1,0.9,1.1,0.9
35380,'Bull Run',500.0,1,1,1,1,1.01809776,-21.034589,1.1,0.9,1.1,0.9
35381,'Raccoon Mo~1',500.0,1,1,1,1,0.99905491,-10.343883,1.1,0.9,1.1,0.9
35382,'Allen Stea~1',500.0,2,1,1,1,1.01755893,-7.637329,1.1,0.9,1.1,0.9
35383,'John Sevier',500.0,1,1,1,1,1.02750278,-23.217312,1.1,0.9,1.1,0.9
35384,'Tennessee ~1',500.0,1,1,1,1,1.02590239,-25.260241,1.1,0.9,1.1,0.9
35385,'Gleason Ge~1',500.0,2,1,1,1,1.0,-4.618906,1.1,0.9,1.1,0.9
35386,'Kingston',500.0,1,1,1,1,1.01642597,-17.396183,1.1,0.9,1.1,0.9
35387,'Lagoon Creek',500.0,2,1,1,1,1.03001022,-4.610418,1.1,0.9,1.1,0.9
35388,'Johnsonville',500.0,1,1,1,1,1.01075304,-4.75361,1.1,0.9,1.1,0.9
35389,'Brownsvill~1',500.0,2,1,1,1,1.01999998,-5.577144,1.1,0.9,1.1,0.9
35390,'Gallatin (~1',345.0,1,1,1,1,0.98671919,-16.8542,1.1,0.9,1.1,0.9
35391,'Bowater Ne~1',138.0,2,1,1,1,0.98852503,-13.567494,1.1,0.9,1.1,0.9
35392,'Watts Bar ~1',500.0,1,1,1,1,1.01965952,-12.406151,1.1,0.9,1.1,0.9
35393,'Dale Hollow',138.0,1,1,1,1,0.97858012,-20.887355,1.1,0.9,1.1,0.9
35394,'Calderwood',500.0,2,1,1,1,1.01999998,-21.649926,1.1,0.9,1.1,0.9
35395,'Domtar Kin~1',500.0,1,1,1,1,1.02719963,-25.250461,1.1,0.9,1.1,0.9
35396,'Chilhowee',138.0,2,1,1,1,1.00785768,-20.134822,1.1,0.9,1.1,0.9
35397,'Tims Ford',69.0,2,1,1,1,1.02138078,-18.549423,1.1,0.9,1.1,0.9
35398,'Center Hill',138.0,2,1,1,1,0.99781644,-17.837708,1.1,0.9,1.1,0.9
35399,'Apalachia',138.0,2,1,1,1,1.01999998,-14.217724,1.1,0.9,1.1,0.9
35400,'Pickwick L~1',500.0,1,1,1,1,1.01323342,-6.770714,1.1,0.9,1.1,0.9
35401,'Chickamauga',138.0,2,1,1,1,0.98922586,-11.445861,1.1,0.9,1.1,0.9
35402,'South Hols~1',500.0,1,1,1,1,1.04070747,-25.49518,1.1,0.9,1.1,0.9
35403,'Cheatham',138.0,2,1,1,1,0.98191917,-12.911195,1.1,0.9,1.1,0.9
35404,'Melton Hill',138.0,1,1,1,1,1.01307583,-19.943073,1.1,0.9,1.1,0.9
35405,'Fort Loudoun',230.0,1,1,1,1,1.01146734,-20.608947,1.1,0.9,1.1,0.9
35406,'Great Fall~1',138.0,2,1,1,1,0.97481132,-18.018801,1.1,0.9,1.1,0.9
35407,'Watts Bar ~2',345.0,1,1,1,1,1.01632321,-13.519205,1.1,0.9,1.1,0.9
35408,'Cordell Hull',138.0,2,1,1,1,0.9994272,-18.164661,1.1,0.9,1.1,0.9
35409,'Cherokee Dam',138.0,2,1,1,1,0.9966343,-27.037522,1.1,0.9,1.1,0.9
35410,'Douglas Dam',138.0,2,1,1,1,1.00774741,-26.459166,1.1,0.9,1.1,0.9
35411,'Fort Patri~1',500.0,1,1,1,1,1.03117239,-25.212422,1.1,0.9,1.1,0.9
35412,'Boone Dam',138.0,2,1,1,1,0.98541707,-27.928614,1.1,0.9,1.1,0.9
35413,'Ocoee 3',69.0,2,1,1,1,1.01999998,-14.124308,1.1,0.9,1.1,0.9
35414,'Watauga',500.0,1,1,1,1,1.03908253,-25.320515,1.1,0.9,1.1,0.9
35415,'J P Priest',69.0,2,1,1,1,0.99107301,-19.961921,1.1,0.9,1.1,0.9
35416,'Buffalo Mo~1',138.0,2,1,1,1,1.00384605,-20.990442,1.1,0.9,1.1,0.9
35417,'Old Hickory',138.0,2,1,1,1,0.96651006,-18.390182,1.1,0.9,1.1,0.9
35418,'Cargill Co~1',69.0,2,1,1,1,1.01527905,-8.143378,1.1,0.9,1.1,0.9
35419,'Nickajack',138.0,2,1,1,1,1.00616872,-10.669585,1.1,0.9,1.1,0.9
35420,'Ocoee 2',69.0,2,1,1,1,1.01999998,-14.114475,1.1,0.9,1.1,0.9
35421,'Packaging ~1',138.0,2,1,1,1,0.9916445,-3.697965,1.1,0.9,1.1,0.9
35422,'Powell Val~1',69.0,2,1,1,1,1.0,-28.222159,1.1,0.9,1.1,0.9
35423,'McMinnville',138.0,1,1,1,1,0.94319987,-19.617989,1.1,0.9,1.1,0.9
36603,'21001970100',69.0,1,1,1,1,0.99483091,-26.055411,1.1,0.9,1.1,0.9
36604,'21001970200',69.0,1,1,1,1,0.99637574,-25.620538,1.1,0.9,1.1,0.9
36605,'21001970300',69.0,1,1,1,1,0.99505025,-25.591025,1.1,0.9,1.1,0.9
36606,'21001970401',138.0,1,1,1,1,0.97577769,-23.56592,1.1,0.9,1.1,0.9
36607,'21001970402',138.0,1,1,1,1,0.96896845,-24.02913,1.1,0.9,1.1,0.9
36608,'21001970500',69.0,1,1,1,1,0.99098593,-24.997497,1.1,0.9,1.1,0.9
36609,'21001970600',138.0,1,1,1,1,0.99054843,-22.633119,1.1,0.9,1.1,0.9
36610,'21003920100',69.0,1,1,1,1,1.00503373,-20.930621,1.1,0.9,1.1,0.9
36611,'21003920200',138.0,1,1,1,1,0.97910374,-20.039102,1.1,0.9,1.1,0.9
36612,'21003920300',138.0,1,1,1,1,0.97527218,-20.807043,1.1,0.9,1.1,0.9
36613,'21003920400',138.0,1,1,1,1,0.98010248,-21.427939,1.1,0.9,1.1,0.9
36614,'21003920500',69.0,1,1,1,1,1.005,-22.964192,1.1,0.9,1.1,0.9
36615,'21003920600',69.0,1,1,1,1,0.97663647,-21.932077,1.1,0.9,1.1,0.9
36616,'21005950100',138.0,1,1,1,1,0.97140557,-23.807671,1.1,0.9,1.1,0.9
36617,'21005950201',138.0,1,1,1,1,0.97197545,-23.425435,1.1,0.9,1.1,0.9
36618,'21005950202',69.0,1,1,1,1,0.9950034,-24.183202,1.1,0.9,1.1,0.9
36619,'21005950300',138.0,1,1,1,1,0.97396374,-22.914182,1.1,0.9,1.1,0.9
36620,'21005950400',69.0,1,1,1,1,1.00135994,-24.415792,1.1,0.9,1.1,0.9
36621,'21007950100',69.0,1,1,1,1,1.01086223,-5.691227,1.1,0.9,1.1,0.9
36622,'21007950200',69.0,1,1,1,1,1.00625229,-6.038044,1.1,0.9,1.1,0.9
36623,'21007950300',500.0,1,1,1,1,1.01415443,-3.518114,1.1,0.9,1.1,0.9
36624,'21009950100',69.0,1,1,1,1,0.99836558,-22.783187,1.1,0.9,1.1,0.9
36625,'21009950200',69.0,1,1,1,1,0.98296922,-23.823864,1.1,0.9,1.1,0.9
36626,'21009950300',69.0,1,1,1,1,1.00239265,-21.702574,1.1,0.9,1.1,0.9
36627,'21009950400',500.0,1,1,1,1,0.99444884,-17.274745,1.1,0.9,1.1,0.9
36628,'21009950500',138.0,1,1,1,1,0.97549349,-20.750325,1.1,0.9,1.1,0.9
36629,'21009950600',138.0,1,1,1,1,0.97105187,-21.176013,1.1,0.9,1.1,0.9
36630,'21009950700',230.0,1,1,1,1,0.9829917,-20.109465,1.1,0.9,1.1,0.9
36631,'21009950800',138.0,1,1,1,1,0.96427137,-21.674012,1.1,0.9,1.1,0.9
36632,'21009950900',69.0,1,1,1,1,0.99657464,-22.36205,1.1,0.9,1.1,0.9
36633,'21009951000',138.0,1,1,1,1,0.9757306,-19.971861,1.1,0.9,1.1,0.9
36634,'21011970100',69.0,1,1,1,1,0.97715104,-27.488248,1.1,0.9,1.1,0.9
36635,'21011970200',138.0,1,1,1,1,0.96062845,-26.567324,1.1,0.9,1.1,0.9
36636,'21011970300',69.0,1,1,1,1,0.97536689,-28.718579,1.1,0.9,1.1,0.9
36637,'21013960100',138.0,1,1,1,1,0.96450454,-28.952824,1.1,0.9,1.1,0.9
36638,'21013960200',69.0,1,1,1,1,0.99059319,-29.665701,1.1,0.9,1.1,0.9
36639,'21013960300',69.0,1,1,1,1,0.97638077,-30.690127,1.1,0.9,1.1,0.9
36640,'21013960400',69.0,1,1,1,1,0.98171407,-30.467592,1.1,0.9,1.1,0.9
36641,'21013960500',69.0,1,1,1,1,0.97512901,-30.652181,1.1,0.9,1.1,0.9
36642,'21013960600',138.0,1,1,1,1,0.95537639,-28.465539,1.1,0.9,1.1,0.9
36643,'21013960700',138.0,1,1,1,1,0.9517954,-28.744332,1.1,0.9,1.1,0.9
36644,'21013960800',69.0,1,1,1,1,0.98330265,-29.806864,1.1,0.9,1.1,0.9
36645,'21013961100',69.0,1,1,1,1,0.97864211,-30.11552,1.1,0.9,1.1,0.9
36646,'21015070100',138.0,1,1,1,1,0.9789021,-20.213504,1.1,0.9,1.1,0.9
36647,'21015070200',345.0,1,1,1,1,0.9919464,-18.930445,1.1,0.9,1.1,0.9
36648,'21015070301',500.0,1,1,1,1,0.99570143,-18.104183,1.1,0.9,1.1,0.9
36649,'21015070305',138.0,1,1,1,1,0.97608352,-20.11167,1.1,0.9,1.1,0.9
36650,'21015070307',138.0,1,1,1,1,0.9782446,-19.860764,1.1,0.9,1.1,0.9
36651,'21015070308',138.0,1,1,1,1,0.98269588,-19.970343,1.1,0.9,1.1,0.9
36652,'21015070309',69.0,1,1,1,1,0.98525488,-20.077152,1.1,0.9,1.1,0.9
36653,'21015070311',500.0,1,1,1,1,0.99323308,-18.153386,1.1,0.9,1.1,0.9
36654,'21015070312',138.0,1,1,1,1,0.97886789,-20.148573,1.1,0.9,1.1,0.9
36655,'21015070313',138.0,1,1,1,1,0.97741735,-20.161171,1.1,0.9,1.1,0.9
36656,'21015070314',138.0,1,1,1,1,0.97651529,-20.151665,1.1,0.9,1.1,0.9
36657,'21015070401',138.0,1,1,1,1,0.96859342,-20.646786,1.1,0.9,1.1,0.9
36658,'21015070402',138.0,1,1,1,1,0.97063893,-20.368997,1.1,0.9,1.1,0.9
36659,'21015070502',138.0,1,1,1,1,0.98035443,-19.502548,1.1,0.9,1.1,0.9
36660,'21015070503',138.0,1,1,1,1,0.97247964,-20.320948,1.1,0.9,1.1,0.9
36661,'21015070504',138.0,1,1,1,1,0.9729526,-20.147842,1.1,0.9,1.1,0.9
36662,'21015070601',69.0,1,1,1,1,0.98592401,-19.874529,1.1,0.9,1.1,0.9
36663,'21015070604',138.0,1,1,1,1,0.97559398,-19.931165,1.1,0.9,1.1,0.9
36664,'21015070605',69.0,1,1,1,1,0.98451352,-20.348488,1.1,0.9,1.1,0.9
36665,'21015070606',138.0,1,1,1,1,0.97479767,-20.23962,1.1,0.9,1.1,0.9
36666,'21015070607',69.0,1,1,1,1,0.98639441,-20.536845,1.1,0.9,1.1,0.9
36667,'21015980100',138.0,1,1,1,1,0.972902,-20.508881,1.1,0.9,1.1,0.9
36668,'21017030100',138.0,1,1,1,1,0.95576632,-25.5153,1.1,0.9,1.1,0.9
36669,'21017030200',138.0,1,1,1,1,0.95868027,-25.597046,1.1,0.9,1.1,0.9
36670,'21017030300',138.0,1,1,1,1,0.97068965,-25.485237,1.1,0.9,1.1,0.9
36671,'21017030400',69.0,1,1,1,1,0.96968311,-27.549795,1.1,0.9,1.1,0.9
36672,'21017030500',69.0,1,1,1,1,0.96714544,-27.583958,1.1,0.9,1.1,0.9
36673,'21017030600',69.0,1,1,1,1,0.98194206,-28.268707,1.1,0.9,1.1,0.9
36674,'21019030200',345.0,1,1,1,1,1.00663996,-22.959841,1.1,0.9,1.1,0.9
36675,'21019030300',69.0,1,1,1,1,1.01836252,-25.321215,1.1,0.9,1.1,0.9
36676,'21019030400',69.0,1,1,1,1,1.02155662,-25.206828,1.1,0.9,1.1,0.9
36677,'21019030500',138.0,1,1,1,1,0.99233472,-23.723257,1.1,0.9,1.1,0.9
36678,'21019030600',69.0,1,1,1,1,1.01918852,-25.374913,1.1,0.9,1.1,0.9
36679,'21019030700',69.0,1,1,1,1,1.01918471,-25.293294,1.1,0.9,1.1,0.9
36680,'21019030800',69.0,1,1,1,1,1.01618183,-25.516837,1.1,0.9,1.1,0.9
36681,'21019030900',69.0,1,1,1,1,1.0151093,-25.550805,1.1,0.9,1.1,0.9
36682,'21019031001',69.0,1,1,1,1,1.00941873,-26.001301,1.1,0.9,1.1,0.9
36683,'21019031002',138.0,1,1,1,1,0.99517667,-23.935619,1.1,0.9,1.1,0.9
36684,'21019031100',230.0,1,1,1,1,1.00848413,-23.108656,1.1,0.9,1.1,0.9
36685,'21019031200',500.0,1,1,1,1,1.0191052,-21.174908,1.1,0.9,1.1,0.9
36686,'21019031300',138.0,1,1,1,1,0.99677318,-23.466261,1.1,0.9,1.1,0.9
36687,'21021930100',138.0,1,1,1,1,1.00783384,-21.570383,1.1,0.9,1.1,0.9
36688,'21021930200',138.0,1,1,1,1,0.99915481,-22.401205,1.1,0.9,1.1,0.9
36689,'21021930300',138.0,1,1,1,1,1.00871003,-22.416051,1.1,0.9,1.1,0.9
36690,'21021930400',69.0,1,1,1,1,1.00744641,-24.088206,1.1,0.9,1.1,0.9
36691,'21021930500',500.0,1,1,1,1,1.01944518,-22.404706,1.1,0.9,1.1,0.9
36692,'21021930600',69.0,1,1,1,1,0.99359959,-25.532804,1.1,0.9,1.1,0.9
36693,'21021930700',138.0,1,1,1,1,1.0002929,-23.907551,1.1,0.9,1.1,0.9
36694,'21023950100',500.0,1,1,1,1,1.01322758,-19.433698,1.1,0.9,1.1,0.9
36695,'21023950200',500.0,1,1,1,1,1.00842595,-19.119926,1.1,0.9,1.1,0.9
36696,'21023950300',138.0,1,1,1,1,0.97947955,-21.114288,1.1,0.9,1.1,0.9
36697,'21025920100',69.0,1,1,1,1,1.00487161,-26.901878,1.1,0.9,1.1,0.9
36698,'21025920200',138.0,1,1,1,1,0.97173816,-27.022575,1.1,0.9,1.1,0.9
36699,'21025920300',138.0,1,1,1,1,0.97166473,-27.157858,1.1,0.9,1.1,0.9
36700,'21025920400',138.0,1,1,1,1,0.99111646,-26.370976,1.1,0.9,1.1,0.9
36701,'21025920500',138.0,1,1,1,1,0.97699475,-27.333813,1.1,0.9,1.1,0.9
36702,'21025920600',138.0,1,1,1,1,0.97608232,-27.339239,1.1,0.9,1.1,0.9
36703,'21025920700',138.0,1,1,1,1,0.98233157,-27.119432,1.1,0.9,1.1,0.9
36704,'21027960100',138.0,1,1,1,1,0.99070668,-17.539004,1.1,0.9,1.1,0.9
36705,'21027960200',138.0,1,1,1,1,0.98163778,-17.188014,1.1,0.9,1.1,0.9
36706,'21027960300',69.0,1,1,1,1,0.9868995,-16.094625,1.1,0.9,1.1,0.9
36707,'21027960400',69.0,1,1,1,1,0.98636752,-17.7591,1.1,0.9,1.1,0.9
36708,'21027960501',69.0,1,1,1,1,0.97142029,-20.724496,1.1,0.9,1.1,0.9
36709,'21027960502',69.0,1,1,1,1,0.96743745,-21.572997,1.1,0.9,1.1,0.9
36710,'21029020101',69.0,1,1,1,1,0.99343598,-22.969689,1.1,0.9,1.1,0.9
36711,'21029020102',138.0,1,1,1,1,0.96061999,-22.206106,1.1,0.9,1.1,0.9
36712,'21029020103',138.0,1,1,1,1,0.97009313,-21.870343,1.1,0.9,1.1,0.9
36713,'21029020201',69.0,1,1,1,1,0.98216277,-23.6443,1.1,0.9,1.1,0.9
36714,'21029020202',69.0,1,1,1,1,0.99276888,-23.005474,1.1,0.9,1.1,0.9
36715,'21029020300',138.0,1,1,1,1,0.96070588,-22.155206,1.1,0.9,1.1,0.9
36716,'21029020400',138.0,1,1,1,1,0.96266711,-22.072262,1.1,0.9,1.1,0.9
36717,'21029020500',138.0,1,1,1,1,0.96588492,-21.854331,1.1,0.9,1.1,0.9
36718,'21029020601',138.0,1,1,1,1,0.96692818,-21.78957,1.1,0.9,1.1,0.9
36719,'21029020602',69.0,1,1,1,1,0.9944874,-21.635884,1.1,0.9,1.1,0.9
36720,'21029020701',138.0,1,1,1,1,0.9751156,-21.119459,1.1,0.9,1.1,0.9
...
0 / END OF BUS DATA BEGIN LOAD DATA
35313,'1',1,1,1,0.0,0.0,0.0,0.0,0.0,0.0,1,1,0
35314,'1',1,1,1,0.0,0.0,0.0,0.0,0.0,0.0,1,1,0
35315,'1',1,1,1,0.0,0.0,0.0,0.0,0.0,0.0,1,1,0
35316,'1',1,1,1,0.0,0.0,0.0,0.0,0.0,0.0,1,1,0
35317,'1',1,1,1,0.0,0.0,0.0,0.0,0.0,0.0,1,1,0
35318,'1',1,1,1,0.0,0.0,0.0,0.0,0.0,0.0,1,1,0
35319,'1',1,1,1,0.0,0.0,0.0,0.0,0.0,0.0,1,1,0
35320,'1',1,1,1,0.0,0.0,0.0,0.0,0.0,0.0,1,1,0
35321,'1',1,1,1,0.0,0.0,0.0,0.0,0.0,0.0,1,1,0
35322,'1',1,1,1,0.0,0.0,0.0,0.0,0.0,0.0,1,1,0
35323,'1',1,1,1,0.0,0.0,0.0,0.0,0.0,0.0,1,1,0
35326,'1',1,1,1,0.0,0.0,0.0,0.0,0.0,0.0,1,1,0
35329,'1',1,1,1,0.0,0.0,0.0,0.0,0.0,0.0,1,1,0
35330,'1',1,1,1,0.0,0.0,0.0,0.0,0.0,0.0,1,1,0
35331,'1',1,1,1,0.0,0.0,0.0,0.0,0.0,0.0,1,1,0
35332,'1',1,1,1,0.0,0.0,0.0,0.0,0.0,0.0,1,1,0
35338,'1',1,1,1,0.0,0.0,0.0,0.0,0.0,0.0,1,1,0
35339,'1',1,1,1,0.0,0.0,0.0,0.0,0.0,0.0,1,1,0
35341,'1',1,1,1,0.0,0.0,0.0,0.0,0.0,0.0,1,1,0
35378,'1',1,1,1,0.0,0.0,0.0,0.0,0.0,0.0,1,1,0
35384,'1',1,1,1,0.0,0.0,0.0,0.0,0.0,0.0,1,1,0
35385,'1',1,1,1,0.0,0.0,0.0,0.0,0.0,0.0,1,1,0
35386,'1',1,1,1,0.0,0.0,0.0,0.0,0.0,0.0,1,1,0
35391,'1',1,1,1,0.0,0.0,0.0,0.0,0.0,0.0,1,1,0
35397,'1',1,1,1,0.0,0.0,0.0,0.0,0.0,0.0,1,1,0
35401,'1',1,1,1,0.0,0.0,0.0,0.0,0.0,0.0,1,1,0
35403,'1',1,1,1,0.0,0.0,0.0,0.0,0.0,0.0,1,1,0
35405,'1',1,1,1,0.0,0.0,0.0,0.0,0.0,0.0,1,1,0
35407,'1',1,1,1,0.0,0.0,0.0,0.0,0.0,0.0,1,1,0
35411,'1',1,1,1,0.0,0.0,0.0,0.0,0.0,0.0,1,1,0
35413,'1',1,1,1,0.0,0.0,0.0,0.0,0.0,0.0,1,1,0
35415,'1',1,1,1,0.0,0.0,0.0,0.0,0.0,0.0,1,1,0
35417,'1',1,1,1,0.0,0.0,0.0,0.0,0.0,0.0,1,1,0
35418,'1',1,1,1,0.0,0.0,0.0,0.0,0.0,0.0,1,1,0
35419,'1',1,1,1,0.0,0.0,0.0,0.0,0.0,0.0,1,1,0
35420,'1',1,1,1,0.0,0.0,0.0,0.0,0.0,0.0,1,1,0
35421,'1',1,1,1,0.0,0.0,0.0,0.0,0.0,0.0,1,1,0
35422,'1',1,1,1,0.0,0.0,0.0,0.0,0.0,0.0,1,1,0
36603,'1',1,1,1,3.615,0.741,0.0,0.0,0.0,0.0,1,1,0
36604,'1',1,1,1,5.932,2.132,0.0,0.0,0.0,0.0,1,1,0
36605,'1',1,1,1,5.561,2.039,0.0,0.0,0.0,0.0,1,1,0
36608,'1',1,1,1,5.839,2.132,0.0,0.0,0.0,0.0,1,1,0
36609,'1',1,1,1,3.244,1.39,0.0,0.0,0.0,0.0,1,1,0
36610,'1',1,1,1,6.21,2.873,0.0,0.0,0.0,0.0,1,1,0
36611,'1',1,1,1,4.912,2.039,0.0,0.0,0.0,0.0,1,1,0
36614,'1',1,1,1,2.781,0.556,0.0,0.0,0.0,0.0,1,1,0
36615,'1',1,1,1,6.488,0.927,0.0,0.0,0.0,0.0,1,1,0
36618,'1',1,1,1,20.854,6.673,0.0,0.0,0.0,0.0,1,1,0
36619,'1',1,1,1,3.707,1.576,0.0,0.0,0.0,0.0,1,1,0
36620,'1',1,1,1,5.654,2.039,0.0,0.0,0.0,0.0,1,1,0
36621,'1',1,1,1,14.366,6.302,0.0,0.0,0.0,0.0,1,1,0
36622,'1',1,1,1,3.522,1.298,0.0,0.0,0.0,0.0,1,1,0
36624,'1',1,1,1,7.785,2.688,0.0,0.0,0.0,0.0,1,1,0
36625,'1',1,1,1,17.054,6.395,0.0,0.0,0.0,0.0,1,1,0
36626,'1',1,1,1,8.527,2.966,0.0,0.0,0.0,0.0,1,1,0
36632,'1',1,1,1,7.878,3.429,0.0,0.0,0.0,0.0,1,1,0
36634,'1',1,1,1,3.707,1.483,0.0,0.0,0.0,0.0,1,1,0
36636,'1',1,1,1,12.234,4.727,0.0,0.0,0.0,0.0,1,1,0
36638,'1',1,1,1,12.512,5.098,0.0,0.0,0.0,0.0,1,1,0
36639,'1',1,1,1,4.634,1.854,0.0,0.0,0.0,0.0,1,1,0
36640,'1',1,1,1,3.244,1.39,0.0,0.0,0.0,0.0,1,1,0
36641,'1',1,1,1,12.883,3.985,0.0,0.0,0.0,0.0,1,1,0
36644,'1',1,1,1,6.395,2.873,0.0,0.0,0.0,0.0,1,1,0
36645,'1',1,1,1,7.878,2.781,0.0,0.0,0.0,0.0,1,1,0
36646,'1',1,1,1,26.322,11.493,0.0,0.0,0.0,0.0,1,1,0
36647,'1',1,1,1,46.712,14.459,0.0,0.0,0.0,0.0,1,1,0
36650,'1',1,1,1,22.986,8.898,0.0,0.0,0.0,0.0,1,1,0
36652,'1',1,1,1,10.844,4.171,0.0,0.0,0.0,0.0,1,1,0
36654,'1',1,1,1,17.054,6.488,0.0,0.0,0.0,0.0,1,1,0
36655,'1',1,1,1,8.156,3.522,0.0,0.0,0.0,0.0,1,1,0
36656,'1',1,1,1,10.751,5.005,0.0,0.0,0.0,0.0,1,1,0
36657,'1',1,1,1,36.332,12.605,0.0,0.0,0.0,0.0,1,1,0
36659,'1',1,1,1,13.81,5.839,0.0,0.0,0.0,0.0,1,1,0
36662,'1',1,1,1,6.21,2.595,0.0,0.0,0.0,0.0,1,1,0
36664,'1',1,1,1,14.922,6.302,0.0,0.0,0.0,0.0,1,1,0
36665,'1',1,1,1,56.166,20.112,0.0,0.0,0.0,0.0,1,1,0
36666,'1',1,1,1,8.249,3.337,0.0,0.0,0.0,0.0,1,1,0
36667,'1',1,1,1,24.932,8.712,0.0,0.0,0.0,0.0,1,1,0
36669,'1',1,1,1,17.424,7.229,0.0,0.0,0.0,0.0,1,1,0
36670,'1',1,1,1,8.063,0.649,0.0,0.0,0.0,0.0,1,1,0
36671,'1',1,1,1,20.39,4.449,0.0,0.0,0.0,0.0,1,1,0
36672,'1',1,1,1,10.195,3.151,0.0,0.0,0.0,0.0,1,1,0
36673,'1',1,1,1,6.302,2.317,0.0,0.0,0.0,0.0,1,1,0
36675,'1',1,1,1,8.434,3.707,0.0,0.0,0.0,0.0,1,1,0
36676,'1',1,1,1,7.137,2.224,0.0,0.0,0.0,0.0,1,1,0
36678,'1',1,1,1,9.083,3.337,0.0,0.0,0.0,0.0,1,1,0
36679,'1',1,1,1,7.322,3.151,0.0,0.0,0.0,0.0,1,1,0
36680,'1',1,1,1,7.971,3.707,0.0,0.0,0.0,0.0,1,1,0
36681,'1',1,1,1,13.254,5.468,0.0,0.0,0.0,0.0,1,1,0
36682,'1',1,1,1,13.995,6.024,0.0,0.0,0.0,0.0,1,1,0
36684,'1',1,1,1,45.786,14.181,0.0,0.0,0.0,0.0,1,1,0
36685,'1',1,1,1,160.806,44.117,0.0,0.0,0.0,0.0,1,1,0
36686,'1',1,1,1,13.532,5.376,0.0,0.0,0.0,0.0,1,1,0
36687,'1',1,1,1,20.946,7.415,0.0,0.0,0.0,0.0,1,1,0
36688,'1',1,1,1,19.0,7.693,0.0,0.0,0.0,0.0,1,1,0
36690,'1',1,1,1,14.644,4.912,0.0,0.0,0.0,0.0,1,1,0
36692,'1',1,1,1,8.249,3.8,0.0,0.0,0.0,0.0,1,1,0
36694,'1',1,1,1,9.824,3.985,0.0,0.0,0.0,0.0,1,1,0
36696,'1',1,1,1,11.215,4.634,0.0,0.0,0.0,0.0,1,1,0
36697,'1',1,1,1,3.059,1.205,0.0,0.0,0.0,0.0,1,1,0
36698,'1',1,1,1,5.005,2.41,0.0,0.0,0.0,0.0,1,1,0
36700,'1',1,1,1,2.224,0.927,0.0,0.0,0.0,0.0,1,1,0
36701,'1',1,1,1,2.688,1.205,0.0,0.0,0.0,0.0,1,1,0
36703,'1',1,1,1,12.512,4.356,0.0,0.0,0.0,0.0,1,1,0
36706,'1',1,1,1,7.878,3.059,0.0,0.0,0.0,0.0,1,1,0
36707,'1',1,1,1,3.429,1.483,0.0,0.0,0.0,0.0,1,1,0
36708,'1',1,1,1,5.839,2.781,0.0,0.0,0.0,0.0,1,1,0
36709,'1',1,1,1,8.805,3.985,0.0,0.0,0.0,0.0,1,1,0
36710,'1',1,1,1,8.156,3.707,0.0,0.0,0.0,0.0,1,1,0
36712,'1',1,1,1,6.581,3.059,0.0,0.0,0.0,0.0,1,1,0
36713,'1',1,1,1,10.844,4.541,0.0,0.0,0.0,0.0,1,1,0
36714,'1',1,1,1,7.693,3.707,0.0,0.0,0.0,0.0,1,1,0
36719,'1',1,1,1,5.098,1.946,0.0,0.0,0.0,0.0,1,1,0
36723,'1',1,1,1,5.746,2.132,0.0,0.0,0.0,0.0,1,1,0
36724,'1',1,1,1,20.854,6.859,0.0,0.0,0.0,0.0,1,1,0
36725,'1',1,1,1,28.917,9.083,0.0,0.0,0.0,0.0,1,1,0
36726,'1',1,1,1,17.332,5.746,0.0,0.0,0.0,0.0,1,1,0
36727,'1',1,1,1,0.371,0.093,0.0,0.0,0.0,0.0,1,1,0
36728,'1',1,1,1,6.21,2.41,0.0,0.0,0.0,0.0,1,1,0
36729,'1',1,1,1,2.688,1.205,0.0,0.0,0.0,0.0,1,1,0
36731,'1',1,1,1,3.615,1.483,0.0,0.0,0.0,0.0,1,1,0
36732,'1',1,1,1,3.151,1.298,0.0,0.0,0.0,0.0,1,1,0
36733,'1',1,1,1,4.912,2.132,0.0,0.0,0.0,0.0,1,1,0
36736,'1',1,1,1,8.99,3.244,0.0,0.0,0.0,0.0,1,1,0
36737,'1',1,1,1,13.903,4.727,0.0,0.0,0.0,0.0,1,1,0
36739,'1',1,1,1,15.107,5.376,0.0,0.0,0.0,0.0,1,1,0
36742,'1',1,1,1,13.346,5.932,0.0,0.0,0.0,0.0,1,1,0
36743,'1',1,1,1,5.654,2.502,0.0,0.0,0.0,0.0,1,1,0
36744,'1',1,1,1,6.302,2.688,0.0,0.0,0.0,0.0,1,1,0
36745,'1',1,1,1,3.707,1.39,0.0,0.0,0.0,0.0,1,1,0
36746,'1',1,1,1,6.302,2.502,0.0,0.0,0.0,0.0,1,1,0
36747,'1',1,1,1,10.473,4.263,0.0,0.0,0.0,0.0,1,1,0
36748,'1',1,1,1,9.361,3.8,0.0,0.0,0.0,0.0,1,1,0
36749,'1',1,1,1,8.342,3.059,0.0,0.0,0.0,0.0,1,1,0
36750,'1',1,1,1,2.502,0.927,0.0,0.0,0.0,0.0,1,1,0
36751,'1',1,1,1,8.156,2.595,0.0,0.0,0.0,0.0,1,1,0
36752,'1',1,1,1,7.785,3.429,0.0,0.0,0.0,0.0,1,1,0
36753,'1',1,1,1,9.639,4.541,0.0,0.0,0.0,0.0,1,1,0
36754,'1',1,1,1,16.59,7.6,0.0,0.0,0.0,0.0,1,1,0
36755,'1',1,1,1,11.4,4.634,0.0,0.0,0.0,0.0,1,1,0
36756,'1',1,1,1,18.259,5.654,0.0,0.0,0.0,0.0,1,1,0
36757,'1',1,1,1,4.912,2.039,0.0,0.0,0.0,0.0,1,1,0
36758,'1',1,1,1,9.083,3.8,0.0,0.0,0.0,0.0,1,1,0
36759,'1',1,1,1,4.171,2.039,0.0,0.0,0.0,0.0,1,1,0
36761,'1',1,1,1,9.361,4.356,0.0,0.0,0.0,0.0,1,1,0
36762,'1',1,1,1,10.937,4.634,0.0,0.0,0.0,0.0,1,1,0
36764,'1',1,1,1,12.142,4.541,0.0,0.0,0.0,0.0,1,1,0
36768,'1',1,1,1,14.737,5.561,0.0,0.0,0.0,0.0,1,1,0
36770,'1',1,1,1,3.151,1.205,0.0,0.0,0.0,0.0,1,1,0
36771,'1',1,1,1,5.19,2.132,0.0,0.0,0.0,0.0,1,1,0
36772,'1',1,1,1,6.859,2.688,0.0,0.0,0.0,0.0,1,1,0
36773,'1',1,1,1,23.078,7.044,0.0,0.0,0.0,0.0,1,1,0
36775,'1',1,1,1,7.693,2.41,0.0,0.0,0.0,0.0,1,1,0
36776,'1',1,1,1,6.488,3.059,0.0,0.0,0.0,0.0,1,1,0
36779,'1',1,1,1,5.098,2.039,0.0,0.0,0.0,0.0,1,1,0
36781,'1',1,1,1,26.322,8.434,0.0,0.0,0.0,0.0,1,1,0
36782,'1',1,1,1,10.566,4.356,0.0,0.0,0.0,0.0,1,1,0
36783,'1',1,1,1,2.873,1.205,0.0,0.0,0.0,0.0,1,1,0
36785,'1',1,1,1,20.298,8.063,0.0,0.0,0.0,0.0,1,1,0
36786,'1',1,1,1,8.712,0.522,0.0,0.0,0.0,0.0,1,1,0
36787,'1',1,1,1,8.249,3.059,0.0,0.0,0.0,0.0,1,1,0
36789,'1',1,1,1,9.639,3.893,0.0,0.0,0.0,0.0,1,1,0
36790,'1',1,1,1,107.513,28.639,0.0,0.0,0.0,0.0,1,1,0
36792,'1',1,1,1,10.937,4.541,0.0,0.0,0.0,0.0,1,1,0
36793,'1',1,1,1,8.342,3.893,0.0,0.0,0.0,0.0,1,1,0
36794,'1',1,1,1,13.161,5.468,0.0,0.0,0.0,0.0,1,1,0
36796,'1',1,1,1,13.81,5.376,0.0,0.0,0.0,0.0,1,1,0
36797,'1',1,1,1,3.8,1.668,0.0,0.0,0.0,0.0,1,1,0
36798,'1',1,1,1,9.268,3.8,0.0,0.0,0.0,0.0,1,1,0
36799,'1',1,1,1,5.005,2.132,0.0,0.0,0.0,0.0,1,1,0
36800,'1',1,1,1,61.449,15.756,0.0,0.0,0.0,0.0,1,1,0
36801,'1',1,1,1,16.498,7.137,0.0,0.0,0.0,0.0,1,1,0
36802,'1',1,1,1,11.863,4.634,0.0,0.0,0.0,0.0,1,1,0
36803,'1',1,1,1,9.361,3.8,0.0,0.0,0.0,0.0,1,1,0
36805,'1',1,1,1,6.766,2.688,0.0,0.0,0.0,0.0,1,1,0
36806,'1',1,1,1,0.371,0.185,0.0,0.0,0.0,0.0,1,1,0
36807,'1',1,1,1,12.42,5.468,0.0,0.0,0.0,0.0,1,1,0
36809,'1',1,1,1,8.249,3.893,0.0,0.0,0.0,0.0,1,1,0
36810,'1',1,1,1,8.62,3.244,0.0,0.0,0.0,0.0,1,1,0
36813,'1',1,1,1,5.376,2.039,0.0,0.0,0.0,0.0,1,1,0
36814,'1',1,1,1,7.322,2.966,0.0,0.0,0.0,0.0,1,1,0
36816,'1',1,1,1,27.712,0.0,0.0,0.0,0.0,0.0,1,1,0
36818,'1',1,1,1,13.903,6.024,0.0,0.0,0.0,0.0,1,1,0
36820,'1',1,1,1,6.302,2.317,0.0,0.0,0.0,0.0,1,1,0
36821,'1',1,1,1,8.063,2.781,0.0,0.0,0.0,0.0,1,1,0
36822,'1',1,1,1,2.595,1.112,0.0,0.0,0.0,0.0,1,1,0
36824,'1',1,1,1,17.054,5.283,0.0,0.0,0.0,0.0,1,1,0
36825,'1',1,1,1,10.195,4.634,0.0,0.0,0.0,0.0,1,1,0
36826,'1',1,1,1,6.673,2.595,0.0,0.0,0.0,0.0,1,1,0
36828,'1',1,1,1,2.502,1.112,0.0,0.0,0.0,0.0,1,1,0
36829,'1',1,1,1,2.966,1.39,0.0,0.0,0.0,0.0,1,1,0
36830,'1',1,1,1,7.6,2.966,0.0,0.0,0.0,0.0,1,1,0
36831,'1',1,1,1,13.439,4.912,0.0,0.0,0.0,0.0,1,1,0
36833,'1',1,1,1,91.757,26.322,0.0,0.0,0.0,0.0,1,1,0
36834,'1',1,1,1,13.161,5.283,0.0,0.0,0.0,0.0,1,1,0
36838,'1',1,1,1,15.478,6.859,0.0,0.0,0.0,0.0,1,1,0
36840,'1',1,1,1,18.907,7.044,0.0,0.0,0.0,0.0,1,1,0
36841,'1',1,1,1,8.712,3.893,0.0,0.0,0.0,0.0,1,1,0
36842,'1',1,1,1,13.995,5.376,0.0,0.0,0.0,0.0,1,1,0
36843,'1',1,1,1,6.024,2.41,0.0,0.0,0.0,0.0,1,1,0
...
0 / END OF LOAD DATA BEGIN FIXED SHUNT DATA
0 / END OF FIXED SHUNT DATA BEGIN GENERATOR DATA
35308,'1',771.959,66.528,373.9,-257.3,1.0,0,100.0,0.0,1.0,0.0,0.0,1.0,1,100.0,772.0,440.0,1,1.0,0,1.0,0,1.0,0,1.0,0,1.0
35309,'1',1150.14,-21.687,557.1,-383.4,1.01,75435,100.0,0.0,1.0,0.0,0.0,1.0,1,100.0,1150.2,736.0,1,1.0,0,1.0,0,1.0,0,1.0,0,1.0
35310,'1',124.432,123.3,123.3,-66.3,1.02,75439,100.0,0.0,1.0,0.0,0.0,1.0,1,100.0,199.0,80.0,1,1.0,0,1.0,0,1.0,0,1.0,0,1.0
35310,'7',566.07,195.315,274.2,-188.7,1.02,75439,100.0,0.0,1.0,0.0,0.0,1.0,1,100.0,566.1,141.0,1,1.0,0,1.0,0,1.0,0,1.0,0,1.0
35311,'1',556.871,-38.853,269.7,-185.6,1.0,0,100.0,0.0,1.0,0.0,0.0,1.0,1,100.0,556.9,157.0,1,1.0,0,1.0,0,1.0,0,1.0,0,1.0
35311,'2',556.271,-38.853,269.4,-185.4,1.0,0,100.0,0.0,1.0,0.0,0.0,1.0,1,100.0,556.3,155.0,1,1.0,0,1.0,0,1.0,0,1.0,0,1.0
35311,'3',556.171,-38.853,269.4,-185.4,1.0,0,100.0,0.0,1.0,0.0,0.0,1.0,1,100.0,556.2,153.0,1,1.0,0,1.0,0,1.0,0,1.0,0,1.0
35311,'4',556.471,-38.853,269.5,-185.5,1.0,0,100.0,0.0,1.0,0.0,0.0,1.0,1,100.0,556.5,150.0,1,1.0,0,1.0,0,1.0,0,1.0,0,1.0
35316,'1',816.257,-133.703,395.4,-272.1,1.02,0,100.0,0.0,1.0,0.0,0.0,1.0,1,100.0,816.3,300.0,1,1.0,0,1.0,0,1.0,0,1.0,0,1.0
35322,'3',271.986,-42.926,168.6,-90.7,1.0,75465,100.0,0.0,1.0,0.0,0.0,1.0,1,100.0,272.0,80.0,1,1.0,0,1.0,0,1.0,0,1.0,0,1.0
35323,'1',163.191,101.1,101.1,-54.4,1.02,0,100.0,0.0,1.0,0.0,0.0,1.0,1,100.0,163.2,90.0,1,1.0,0,1.0,0,1.0,0,1.0,0,1.0
35323,'2',282.085,133.566,136.6,-94.0,1.02,0,100.0,0.0,1.0,0.0,0.0,1.0,1,100.0,282.1,150.0,1,1.0,0,1.0,0,1.0,0,1.0,0,1.0
35326,'1',98.795,38.073,47.9,-32.9,1.02,0,100.0,0.0,1.0,0.0,0.0,1.0,1,100.0,98.8,20.0,1,1.0,0,1.0,0,1.0,0,1.0,0,1.0
35330,'1',10.649,5.175,5.175,-3.55,1.02,0,100.0,0.0,1.0,0.0,0.0,1.0,1,100.0,10.65,2.0,1,1.0,0,1.0,0,1.0,0,1.0,0,1.0
35330,'2',10.649,5.175,5.175,-3.55,1.02,0,100.0,0.0,1.0,0.0,0.0,1.0,1,100.0,10.65,2.0,1,1.0,0,1.0,0,1.0,0,1.0,0,1.0
35330,'3',10.649,5.175,5.175,-3.55,1.02,0,100.0,0.0,1.0,0.0,0.0,1.0,1,100.0,10.65,2.0,1,1.0,0,1.0,0,1.0,0,1.0,0,1.0
35330,'4',10.649,5.175,5.175,-3.55,1.02,0,100.0,0.0,1.0,0.0,0.0,1.0,1,100.0,10.65,2.0,1,1.0,0,1.0,0,1.0,0,1.0,0,1.0
35330,'5',10.649,5.175,5.175,-3.55,1.02,0,100.0,0.0,1.0,0.0,0.0,1.0,1,100.0,10.65,2.0,1,1.0,0,1.0,0,1.0,0,1.0,0,1.0
35330,'6',10.649,5.175,5.175,-3.55,1.02,0,100.0,0.0,1.0,0.0,0.0,1.0,1,100.0,10.65,2.0,1,1.0,0,1.0,0,1.0,0,1.0,0,1.0
35330,'7',10.649,5.175,5.175,-3.55,1.02,0,100.0,0.0,1.0,0.0,0.0,1.0,1,100.0,10.65,2.0,1,1.0,0,1.0,0,1.0,0,1.0,0,1.0
35330,'8',10.649,5.175,5.175,-3.55,1.02,0,100.0,0.0,1.0,0.0,0.0,1.0,1,100.0,10.65,2.0,1,1.0,0,1.0,0,1.0,0,1.0,0,1.0
35331,'1',74.996,35.701,46.5,-25.0,1.02,0,100.0,0.0,1.0,0.0,0.0,1.0,1,100.0,75.0,37.0,1,1.0,0,1.0,0,1.0,0,1.0,0,1.0
35331,'2',113.594,35.701,70.4,-37.9,1.02,0,100.0,0.0,1.0,0.0,0.0,1.0,1,100.0,113.6,37.0,1,1.0,0,1.0,0,1.0,0,1.0,0,1.0
35332,'1',74.996,45.5,45.5,-25.0,1.02,0,100.0,0.0,1.0,0.0,0.0,1.0,1,100.0,75.0,26.25,1,1.0,0,1.0,0,1.0,0,1.0,0,1.0
35333,'1',69.996,-23.3,33.9,-23.3,1.02,0,100.0,0.0,1.0,0.0,0.0,1.0,1,100.0,70.0,61.0,1,1.0,0,1.0,0,1.0,0,1.0,0,1.0
35335,'1',45.0,11.926,21.8,-15.0,1.02,0,100.0,0.0,1.0,0.0,0.0,1.0,1,100.0,45.0,45.0,1,1.0,0,1.0,0,1.0,0,1.0,0,1.0
35335,'2',45.0,11.926,21.8,-15.0,1.02,0,100.0,0.0,1.0,0.0,0.0,1.0,1,100.0,45.0,45.0,1,1.0,0,1.0,0,1.0,0,1.0,0,1.0
35335,'3',45.0,11.926,21.8,-15.0,1.02,0,100.0,0.0,1.0,0.0,0.0,1.0,1,100.0,45.0,45.0,1,1.0,0,1.0,0,1.0,0,1.0,0,1.0
35335,'4',45.0,11.926,21.8,-15.0,1.02,0,100.0,0.0,1.0,0.0,0.0,1.0,1,100.0,45.0,45.0,1,1.0,0,1.0,0,1.0,0,1.0,0,1.0
35335,'5',45.0,11.926,21.8,-15.0,1.02,0,100.0,0.0,1.0,0.0,0.0,1.0,1,100.0,45.0,45.0,1,1.0,0,1.0,0,1.0,0,1.0,0,1.0
35335,'6',45.0,11.926,21.8,-15.0,1.02,0,100.0,0.0,1.0,0.0,0.0,1.0,1,100.0,45.0,45.0,1,1.0,0,1.0,0,1.0,0,1.0,0,1.0
35336,'1',42.398,4.429,18.1,-18.1,1.02,0,100.0,0.0,1.0,0.0,0.0,1.0,1,100.0,42.4,18.9,1,1.0,0,1.0,0,1.0,0,1.0,0,1.0
35336,'2',42.398,4.429,18.1,-18.1,1.02,0,100.0,0.0,1.0,0.0,0.0,1.0,1,100.0,42.4,18.9,1,1.0,0,1.0,0,1.0,0,1.0,0,1.0
35336,'3',44.598,4.429,19.0,-19.0,1.02,0,100.0,0.0,1.0,0.0,0.0,1.0,1,100.0,44.6,18.9,1,1.0,0,1.0,0,1.0,0,1.0,0,1.0
35336,'4',44.598,4.429,19.0,-19.0,1.02,0,100.0,0.0,1.0,0.0,0.0,1.0,1,100.0,44.6,18.9,1,1.0,0,1.0,0,1.0,0,1.0,0,1.0
35336,'5',44.598,4.429,19.0,-19.0,1.02,0,100.0,0.0,1.0,0.0,0.0,1.0,1,100.0,44.6,18.9,1,1.0,0,1.0,0,1.0,0,1.0,0,1.0
35337,'1',32.598,20.2,20.2,-10.9,1.02,0,100.0,0.0,1.0,0.0,0.0,1.0,1,100.0,32.6,23.0,1,1.0,0,1.0,0,1.0,0,1.0,0,1.0
35337,'2',177.991,110.3,110.3,-59.3,1.02,0,100.0,0.0,1.0,0.0,0.0,1.0,1,100.0,178.0,81.0,1,1.0,0,1.0,0,1.0,0,1.0,0,1.0
35379,'2',1220.446,-176.69,591.1,-406.8,1.0,75495,100.0,0.0,1.0,0.0,0.0,1.0,1,100.0,1220.5,1125.7,1,1.0,0,1.0,0,1.0,0,1.0,0,1.0
35382,'11',23.899,11.6,11.6,-8.0,1.03,75505,100.0,0.0,1.0,0.0,0.0,1.0,1,100.0,23.9,5.0,1,1.0,0,1.0,0,1.0,0,1.0,0,1.0
35382,'12',23.899,11.6,11.6,-8.0,1.03,75505,100.0,0.0,1.0,0.0,0.0,1.0,1,100.0,23.9,5.0,1,1.0,0,1.0,0,1.0,0,1.0,0,1.0
35382,'13',23.899,11.6,11.6,-8.0,1.03,75505,100.0,0.0,1.0,0.0,0.0,1.0,1,100.0,23.9,5.0,1,1.0,0,1.0,0,1.0,0,1.0,0,1.0
35382,'14',23.899,11.6,11.6,-8.0,1.03,75505,100.0,0.0,1.0,0.0,0.0,1.0,1,100.0,23.9,5.0,1,1.0,0,1.0,0,1.0,0,1.0,0,1.0
35382,'15',23.899,11.6,11.6,-8.0,1.03,75505,100.0,0.0,1.0,0.0,0.0,1.0,1,100.0,23.9,5.0,1,1.0,0,1.0,0,1.0,0,1.0,0,1.0
35382,'16',23.899,11.6,11.6,-8.0,1.03,75505,100.0,0.0,1.0,0.0,0.0,1.0,1,100.0,23.9,5.0,1,1.0,0,1.0,0,1.0,0,1.0,0,1.0
35382,'22',329.983,49.432,195.8,-110.0,1.03,75505,100.0,0.0,1.0,0.0,0.0,1.0,1,100.0,330.0,168.0,1,1.0,0,1.0,0,1.0,0,1.0,0,1.0
35382,'9',84.496,40.9,40.9,-28.2,1.03,75513,100.0,0.0,1.0,0.0,0.0,1.0,1,100.0,84.5,60.0,1,1.0,0,1.0,0,1.0,0,1.0,0,1.0
35385,'1',185.39,-61.8,89.8,-61.8,1.0,0,100.0,0.0,1.0,0.0,0.0,1.0,1,100.0,185.4,70.0,1,1.0,0,1.0,0,1.0,0,1.0,0,1.0
35385,'2',191.19,-62.466,92.6,-63.7,1.0,0,100.0,0.0,1.0,0.0,0.0,1.0,1,100.0,191.2,70.0,1,1.0,0,1.0,0,1.0,0,1.0,0,1.0
35385,'3',191.19,-62.466,92.6,-63.7,1.0,0,100.0,0.0,1.0,0.0,0.0,1.0,1,100.0,191.2,70.0,1,1.0,0,1.0,0,1.0,0,1.0,0,1.0
35387,'10',84.496,22.847,40.9,-28.2,1.03,75513,100.0,0.0,1.0,0.0,0.0,1.0,1,100.0,84.5,60.0,1,1.0,0,1.0,0,1.0,0,1.0,0,1.0
35387,'11',86.195,22.847,41.7,-28.7,1.03,75513,100.0,0.0,1.0,0.0,0.0,1.0,1,100.0,86.2,60.0,1,1.0,0,1.0,0,1.0,0,1.0,0,1.0
35387,'12',86.195,22.847,41.7,-28.7,1.03,75513,100.0,0.0,1.0,0.0,0.0,1.0,1,100.0,86.2,60.0,1,1.0,0,1.0,0,1.0,0,1.0,0,1.0
35387,'13',86.195,22.847,41.7,-28.7,1.03,75513,100.0,0.0,1.0,0.0,0.0,1.0,1,100.0,86.2,60.0,1,1.0,0,1.0,0,1.0,0,1.0,0,1.0
35387,'14',86.195,22.847,41.7,-28.7,1.03,75513,100.0,0.0,1.0,0.0,0.0,1.0,1,100.0,86.2,60.0,1,1.0,0,1.0,0,1.0,0,1.0,0,1.0
35387,'15',257.587,22.847,124.8,-85.9,1.03,75513,100.0,0.0,1.0,0.0,0.0,1.0,1,100.0,257.6,96.8,1,1.0,0,1.0,0,1.0,0,1.0,0,1.0
35387,'8',84.496,22.847,40.9,-28.2,1.03,75513,100.0,0.0,1.0,0.0,0.0,1.0,1,100.0,84.5,60.0,1,1.0,0,1.0,0,1.0,0,1.0,0,1.0
35389,'1',117.994,-10.624,57.2,-39.3,1.02,0,100.0,0.0,1.0,0.0,0.0,1.0,1,100.0,118.0,84.0,1,1.0,0,1.0,0,1.0,0,1.0,0,1.0
35389,'2',117.994,-10.624,57.2,-39.3,1.02,0,100.0,0.0,1.0,0.0,0.0,1.0,1,100.0,118.0,84.0,1,1.0,0,1.0,0,1.0,0,1.0,0,1.0
35389,'3',111.994,-10.624,54.2,-37.3,1.02,0,100.0,0.0,1.0,0.0,0.0,1.0,1,100.0,112.0,75.0,1,1.0,0,1.0,0,1.0,0,1.0,0,1.0
35389,'4',111.994,-10.624,54.2,-37.3,1.02,0,100.0,0.0,1.0,0.0,0.0,1.0,1,100.0,112.0,75.0,1,1.0,0,1.0,0,1.0,0,1.0,0,1.0
35391,'1',21.066,6.933,6.933,-6.933,1.02,0,100.0,0.0,1.0,0.0,0.0,1.0,1,100.0,21.067,2.0,1,1.0,0,1.0,0,1.0,0,1.0,0,1.0
35391,'2',21.066,6.933,6.933,-6.933,1.02,0,100.0,0.0,1.0,0.0,0.0,1.0,1,100.0,21.067,2.0,1,1.0,0,1.0,0,1.0,0,1.0,0,1.0
35391,'3',21.066,6.933,6.933,-6.933,1.02,0,100.0,0.0,1.0,0.0,0.0,1.0,1,100.0,21.067,2.0,1,1.0,0,1.0,0,1.0,0,1.0,0,1.0
35391,'4',24.999,8.2,8.2,-8.2,1.02,0,100.0,0.0,1.0,0.0,0.0,1.0,1,100.0,25.0,2.0,1,1.0,0,1.0,0,1.0,0,1.0,0,1.0
35394,'1',45.032,23.201,39.2,-17.4,1.02,0,100.0,0.0,1.0,0.0,0.0,1.0,1,100.0,52.2,35.0,1,1.0,0,1.0,0,1.0,0,1.0,0,1.0
35394,'2',45.032,23.201,39.2,-17.4,1.02,0,100.0,0.0,1.0,0.0,0.0,1.0,1,100.0,52.2,35.0,1,1.0,0,1.0,0,1.0,0,1.0,0,1.0
35394,'3',45.032,23.201,39.2,-17.4,1.02,0,100.0,0.0,1.0,0.0,0.0,1.0,1,100.0,52.2,35.0,1,1.0,0,1.0,0,1.0,0,1.0,0,1.0
35396,'1',16.599,12.467,12.467,-5.533,1.02,0,100.0,0.0,1.0,0.0,0.0,1.0,1,100.0,16.6,8.0,1,1.0,0,1.0,0,1.0,0,1.0,0,1.0
35396,'2',16.599,12.467,12.467,-5.533,1.02,0,100.0,0.0,1.0,0.0,0.0,1.0,1,100.0,16.6,8.0,1,1.0,0,1.0,0,1.0,0,1.0,0,1.0
35396,'3',16.599,12.467,12.467,-5.533,1.02,0,100.0,0.0,1.0,0.0,0.0,1.0,1,100.0,16.6,8.0,1,1.0,0,1.0,0,1.0,0,1.0,0,1.0
35397,'1',44.998,21.8,21.8,-15.0,1.03,0,100.0,0.0,1.0,0.0,0.0,1.0,1,100.0,45.0,18.7,1,1.0,0,1.0,0,1.0,0,1.0,0,1.0
35398,'1',45.0,21.8,21.8,-15.0,1.02,0,100.0,0.0,1.0,0.0,0.0,1.0,1,100.0,45.0,45.0,1,1.0,0,1.0,0,1.0,0,1.0,0,1.0
35398,'2',45.0,21.8,21.8,-15.0,1.02,0,100.0,0.0,1.0,0.0,0.0,1.0,1,100.0,45.0,45.0,1,1.0,0,1.0,0,1.0,0,1.0,0,1.0
35398,'3',45.0,21.8,21.8,-15.0,1.02,0,100.0,0.0,1.0,0.0,0.0,1.0,1,100.0,45.0,45.0,1,1.0,0,1.0,0,1.0,0,1.0,0,1.0
35399,'1',41.398,-3.24,20.1,-13.8,1.02,0,100.0,0.0,1.0,0.0,0.0,1.0,1,100.0,41.4,13.1,1,1.0,0,1.0,0,1.0,0,1.0,0,1.0
35399,'2',52.197,-3.24,25.3,-17.4,1.02,0,100.0,0.0,1.0,0.0,0.0,1.0,1,100.0,52.2,13.1,1,1.0,0,1.0,0,1.0,0,1.0,0,1.0
35401,'1',39.898,13.1,13.1,-13.1,1.02,0,100.0,0.0,1.0,0.0,0.0,1.0,1,100.0,39.9,11.3,1,1.0,0,1.0,0,1.0,0,1.0,0,1.0
35401,'2',39.898,13.1,13.1,-13.1,1.02,0,100.0,0.0,1.0,0.0,0.0,1.0,1,100.0,39.9,11.3,1,1.0,0,1.0,0,1.0,0,1.0,0,1.0
35401,'3',39.898,13.1,13.1,-13.1,1.02,0,100.0,0.0,1.0,0.0,0.0,1.0,1,100.0,39.9,11.3,1,1.0,0,1.0,0,1.0,0,1.0,0,1.0
35401,'4',39.898,13.1,13.1,-13.1,1.02,0,100.0,0.0,1.0,0.0,0.0,1.0,1,100.0,39.9,11.3,1,1.0,0,1.0,0,1.0,0,1.0,0,1.0
35403,'1',12.0,5.8,5.8,-4.0,1.02,0,100.0,0.0,1.0,0.0,0.0,1.0,1,100.0,12.0,12.0,1,1.0,0,1.0,0,1.0,0,1.0,0,1.0
35403,'2',12.0,5.8,5.8,-4.0,1.02,0,100.0,0.0,1.0,0.0,0.0,1.0,1,100.0,12.0,12.0,1,1.0,0,1.0,0,1.0,0,1.0,0,1.0
35403,'3',12.0,5.8,5.8,-4.0,1.02,0,100.0,0.0,1.0,0.0,0.0,1.0,1,100.0,12.0,12.0,1,1.0,0,1.0,0,1.0,0,1.0,0,1.0
35406,'1',16.849,9.45,9.45,-5.6,1.02,0,100.0,0.0,1.0,0.0,0.0,1.0,1,100.0,16.85,9.0,1,1.0,0,1.0,0,1.0,0,1.0,0,1.0
35406,'2',16.849,9.45,9.45,-5.6,1.02,0,100.0,0.0,1.0,0.0,0.0,1.0,1,100.0,16.85,9.0,1,1.0,0,1.0,0,1.0,0,1.0,0,1.0
35408,'1',33.3,16.1,16.1,-11.1,1.02,0,100.0,0.0,1.0,0.0,0.0,1.0,1,100.0,33.3,33.3,1,1.0,0,1.0,0,1.0,0,1.0,0,1.0
35408,'2',33.3,16.1,16.1,-11.1,1.02,0,100.0,0.0,1.0,0.0,0.0,1.0,1,100.0,33.3,33.3,1,1.0,0,1.0,0,1.0,0,1.0,0,1.0
35408,'3',33.3,16.1,16.1,-11.1,1.02,0,100.0,0.0,1.0,0.0,0.0,1.0,1,100.0,33.3,33.3,1,1.0,0,1.0,0,1.0,0,1.0,0,1.0
35409,'1',20.606,15.7,15.7,-10.8,1.02,0,100.0,0.0,1.0,0.0,0.0,1.0,1,100.0,32.4,14.5,1,1.0,0,1.0,0,1.0,0,1.0,0,1.0
35409,'2',20.779,16.2,16.2,-11.1,1.02,0,100.0,0.0,1.0,0.0,0.0,1.0,1,100.0,33.4,14.5,1,1.0,0,1.0,0,1.0,0,1.0,0,1.0
35409,'3',20.987,16.8,16.8,-11.5,1.02,0,100.0,0.0,1.0,0.0,0.0,1.0,1,100.0,34.6,14.5,1,1.0,0,1.0,0,1.0,0,1.0,0,1.0
35409,'4',20.987,16.8,16.8,-11.5,1.02,0,100.0,0.0,1.0,0.0,0.0,1.0,1,100.0,34.6,14.5,1,1.0,0,1.0,0,1.0,0,1.0,0,1.0
35410,'1',20.45,15.3,15.3,-10.5,1.02,0,100.0,0.0,1.0,0.0,0.0,1.0,1,100.0,31.5,14.2,1,1.0,0,1.0,0,1.0,0,1.0,0,1.0
35410,'2',21.315,17.7,17.7,-12.2,1.02,0,100.0,0.0,1.0,0.0,0.0,1.0,1,100.0,36.5,14.2,1,1.0,0,1.0,0,1.0,0,1.0,0,1.0
35410,'3',22.163,20.1,20.1,-13.8,1.02,0,100.0,0.0,1.0,0.0,0.0,1.0,1,100.0,41.4,13.0,1,1.0,0,1.0,0,1.0,0,1.0,0,1.0
35410,'4',22.163,20.1,20.1,-13.8,1.02,0,100.0,0.0,1.0,0.0,0.0,1.0,1,100.0,41.4,13.0,1,1.0,0,1.0,0,1.0,0,1.0,0,1.0
35412,'1',29.598,9.7,9.7,-9.7,1.02,0,100.0,0.0,1.0,0.0,0.0,1.0,1,100.0,29.6,19.7,1,1.0,0,1.0,0,1.0,0,1.0,0,1.0
35412,'2',37.998,12.5,12.5,-12.5,1.02,0,100.0,0.0,1.0,0.0,0.0,1.0,1,100.0,38.0,19.7,1,1.0,0,1.0,0,1.0,0,1.0,0,1.0
35412,'3',38.298,12.6,12.6,-12.6,1.02,0,100.0,0.0,1.0,0.0,0.0,1.0,1,100.0,38.3,19.7,1,1.0,0,1.0,0,1.0,0,1.0,0,1.0
35413,'1',28.798,9.528,13.9,-9.6,1.02,0,100.0,0.0,1.0,0.0,0.0,1.0,1,100.0,28.8,10.8,1,1.0,0,1.0,0,1.0,0,1.0,0,1.0
35415,'1',28.0,13.6,13.6,-9.3,1.03,0,100.0,0.0,1.0,0.0,0.0,1.0,1,100.0,28.0,28.0,1,1.0,0,1.0,0,1.0,0,1.0,0,1.0
35416,'1',27.0,10.7,10.7,-10.7,1.02,0,100.0,0.0,1.0,0.0,0.0,1.0,1,100.0,27.0,0.0,1,1.0,0,1.0,0,1.0,0,1.0,1,1.0
35417,'1',25.0,15.5,15.5,-8.3,1.02,0,100.0,0.0,1.0,0.0,0.0,1.0,1,100.0,25.0,25.0,1,1.0,0,1.0,0,1.0,0,1.0,0,1.0
35417,'2',25.0,15.5,15.5,-8.3,1.02,0,100.0,0.0,1.0,0.0,0.0,1.0,1,100.0,25.0,25.0,1,1.0,0,1.0,0,1.0,0,1.0,0,1.0
35417,'3',25.0,15.5,15.5,-8.3,1.02,0,100.0,0.0,1.0,0.0,0.0,1.0,1,100.0,25.0,25.0,1,1.0,0,1.0,0,1.0,0,1.0,0,1.0
35417,'4',28.698,17.8,17.8,-9.6,1.02,0,100.0,0.0,1.0,0.0,0.0,1.0,1,100.0,28.7,25.0,1,1.0,0,1.0,0,1.0,0,1.0,0,1.0
35418,'1',24.999,-8.2,8.2,-8.2,1.0,0,100.0,0.0,1.0,0.0,0.0,1.0,1,100.0,25.0,1.0,1,1.0,0,1.0,0,1.0,0,1.0,0,1.0
35419,'1',24.299,11.8,11.8,-8.1,1.02,0,100.0,0.0,1.0,0.0,0.0,1.0,1,100.0,24.3,12.8,1,1.0,0,1.0,0,1.0,0,1.0,0,1.0
35419,'2',24.299,11.8,11.8,-8.1,1.02,0,100.0,0.0,1.0,0.0,0.0,1.0,1,100.0,24.3,12.8,1,1.0,0,1.0,0,1.0,0,1.0,0,1.0
35419,'3',27.399,13.3,13.3,-9.1,1.02,0,100.0,0.0,1.0,0.0,0.0,1.0,1,100.0,27.4,13.7,1,1.0,0,1.0,0,1.0,0,1.0,0,1.0
35419,'4',27.899,13.5,13.5,-9.3,1.02,0,100.0,0.0,1.0,0.0,0.0,1.0,1,100.0,27.9,13.7,1,1.0,0,1.0,0,1.0,0,1.0,0,1.0
35420,'1',11.499,6.639,8.65,-3.85,1.02,0,100.0,0.0,1.0,0.0,0.0,1.0,1,100.0,11.5,6.0,1,1.0,0,1.0,0,1.0,0,1.0,0,1.0
35420,'2',11.499,6.639,8.65,-3.85,1.02,0,100.0,0.0,1.0,0.0,0.0,1.0,1,100.0,11.5,6.0,1,1.0,0,1.0,0,1.0,0,1.0,0,1.0
35421,'1',49.997,16.4,16.4,-16.4,1.02,0,100.0,0.0,1.0,0.0,0.0,1.0,1,100.0,50.0,2.0,1,1.0,0,1.0,0,1.0,0,1.0,0,1.0
35421,'2',22.499,10.9,10.9,-7.5,1.02,0,100.0,0.0,1.0,0.0,0.0,1.0,1,100.0,22.5,2.0,1,1.0,0,1.0,0,1.0,0,1.0,0,1.0
35422,'1',2.0,0.05,0.973,-0.664,1.0,0,100.0,0.0,1.0,0.0,0.0,1.0,1,100.0,2.0,0.4,1,1.0,0,1.0,0,1.0,0,1.0,0,1.0
35422,'10',2.0,0.05,0.973,-0.664,1.0,0,100.0,0.0,1.0,0.0,0.0,1.0,1,100.0,2.0,0.4,1,1.0,0,1.0,0,1.0,0,1.0,0,1.0
35422,'11',2.0,0.05,0.973,-0.664,1.0,0,100.0,0.0,1.0,0.0,0.0,1.0,1,100.0,2.0,0.4,1,1.0,0,1.0,0,1.0,0,1.0,0,1.0
35422,'2',2.0,0.05,0.973,-0.664,1.0,0,100.0,0.0,1.0,0.0,0.0,1.0,1,100.0,2.0,0.4,1,1.0,0,1.0,0,1.0,0,1.0,0,1.0
35422,'3',2.0,0.05,0.973,-0.664,1.0,0,100.0,0.0,1.0,0.0,0.0,1.0,1,100.0,2.0,0.4,1,1.0,0,1.0,0,1.0,0,1.0,0,1.0
35422,'4',2.0,0.05,0.973,-0.664,1.0,0,100.0,0.0,1.0,0.0,0.0,1.0,1,100.0,2.0,0.4,1,1.0,0,1.0,0,1.0,0,1.0,0,1.0
35422,'5',2.0,0.05,0.973,-0.664,1.0,0,100.0,0.0,1.0,0.0,0.0,1.0,1,100.0,2.0,0.4,1,1.0,0,1.0,0,1.0,0,1.0,0,1.0
35422,'6',2.0,0.05,0.973,-0.664,1.0,0,100.0,0.0,1.0,0.0,0.0,1.0,1,100.0,2.0,0.4,1,1.0,0,1.0,0,1.0,0,1.0,0,1.0
35422,'7',2.0,0.05,0.973,-0.664,1.0,0,100.0,0.0,1.0,0.0,0.0,1.0,1,100.0,2.0,0.4,1,1.0,0,1.0,0,1.0,0,1.0,0,1.0
35422,'8',2.0,0.05,0.973,-0.664,1.0,0,100.0,0.0,1.0,0.0,0.0,1.0,1,100.0,2.0,0.4,1,1.0,0,1.0,0,1.0,0,1.0,0,1.0
35422,'9',2.0,0.05,0.973,-0.664,1.0,0,100.0,0.0,1.0,0.0,0.0,1.0,1,100.0,2.0,0.4,1,1.0,0,1.0,0,1.0,0,1.0,0,1.0
75435,'2',703.963,-10.844,341.0,-234.7,1.01,0,100.0,0.0,1.0,0.0,0.0,1.0,1,100.0,704.0,404.0,1,1.0,0,1.0,0,1.0,0,1.0,0,1.0
75435,'3',703.963,-10.844,341.0,-234.7,1.01,0,100.0,0.0,1.0,0.0,0.0,1.0,1,100.0,704.0,401.0,1,1.0,0,1.0,0,1.0,0,1.0,0,1.0
75439,'2',124.432,63.723,123.3,-66.3,1.02,0,100.0,0.0,1.0,0.0,0.0,1.0,1,100.0,199.0,80.0,1,1.0,0,1.0,0,1.0,0,1.0,0,1.0
75439,'3',198.99,63.723,123.3,-66.3,1.02,0,100.0,0.0,1.0,0.0,0.0,1.0,1,100.0,199.0,80.0,1,1.0,0,1.0,0,1.0,0,1.0,0,1.0
75439,'4',124.432,63.723,123.3,-66.3,1.02,0,100.0,0.0,1.0,0.0,0.0,1.0,1,100.0,199.0,80.0,1,1.0,0,1.0,0,1.0,0,1.0,0,1.0
75439,'5',198.99,63.723,123.3,-66.3,1.02,0,100.0,0.0,1.0,0.0,0.0,1.0,1,100.0,199.0,80.0,1,1.0,0,1.0,0,1.0,0,1.0,0,1.0
75439,'6',124.432,63.723,123.3,-66.3,1.02,0,100.0,0.0,1.0,0.0,0.0,1.0,1,100.0,199.0,80.0,1,1.0,0,1.0,0,1.0,0,1.0,0,1.0
75444,'1',509.373,12.827,246.7,-169.8,1.02,0,100.0,0.0,1.0,0.0,0.0,1.0,1,100.0,509.4,300.0,1,1.0,0,1.0,0,1.0,0,1.0,0,1.0
75446,'1',462.576,224.0,224.0,-154.2,1.02,0,100.0,0.0,1.0,0.0,0.0,1.0,1,100.0,462.6,170.0,1,1.0,0,1.0,0,1.0,0,1.0,0,1.0
75446,'4',543.571,263.3,263.3,-181.2,1.02,0,100.0,0.0,1.0,0.0,0.0,1.0,1,100.0,543.6,175.0,1,1.0,0,1.0,0,1.0,0,1.0,0,1.0
75450,'1',329.383,21.17,204.1,-109.8,1.02,0,100.0,0.0,1.0,0.0,0.0,1.0,1,100.0,329.4,180.0,1,1.0,0,1.0,0,1.0,0,1.0,0,1.0
75450,'2',329.383,21.17,204.1,-109.8,1.02,0,100.0,0.0,1.0,0.0,0.0,1.0,1,100.0,329.4,180.0,1,1.0,0,1.0,0,1.0,0,1.0,0,1.0
75450,'3',357.581,21.17,104.3,-104.3,1.02,0,100.0,0.0,1.0,0.0,0.0,1.0,1,100.0,357.6,145.0,1,1.0,0,1.0,0,1.0,0,1.0,0,1.0
75450,'4',592.069,21.17,172.7,-172.7,1.02,0,100.0,0.0,1.0,0.0,0.0,1.0,1,100.0,592.1,280.0,1,1.0,0,1.0,0,1.0,0,1.0,0,1.0
75453,'1',292.985,13.007,141.9,-97.7,1.02,0,100.0,0.0,1.0,0.0,0.0,1.0,1,100.0,293.0,161.0,1,1.0,0,1.0,0,1.0,0,1.0,0,1.0
75453,'2',292.985,13.007,141.9,-97.7,1.02,0,100.0,0.0,1.0,0.0,0.0,1.0,1,100.0,293.0,105.0,1,1.0,0,1.0,0,1.0,0,1.0,0,1.0
75454,'2',280.485,-93.5,173.8,-93.5,1.02,0,100.0,0.0,1.0,0.0,0.0,1.0,1,100.0,280.5,100.0,1,1.0,0,1.0,0,1.0,0,1.0,0,1.0
75456,'1',161.796,-76.7,142.5,-76.7,1.02,0,100.0,0.0,1.0,0.0,0.0,1.0,1,100.0,230.0,120.0,1,1.0,0,1.0,0,1.0,0,1.0,0,1.0
75462,'1',204.989,41.959,99.3,-68.3,1.02,0,100.0,0.0,1.0,0.0,0.0,1.0,1,100.0,205.0,120.0,1,1.0,0,1.0,0,1.0,0,1.0,0,1.0
75462,'2',199.99,41.959,96.9,-66.7,1.02,0,100.0,0.0,1.0,0.0,0.0,1.0,1,100.0,200.0,95.0,1,1.0,0,1.0,0,1.0,0,1.0,0,1.0
75463,'1',191.99,21.66,93.0,-64.0,1.02,0,100.0,0.0,1.0,0.0,0.0,1.0,1,100.0,192.0,68.0,1,1.0,0,1.0,0,1.0,0,1.0,0,1.0
75463,'2',204.989,21.66,127.0,-68.3,1.02,0,100.0,0.0,1.0,0.0,0.0,1.0,1,100.0,205.0,65.0,1,1.0,0,1.0,0,1.0,0,1.0,0,1.0
75463,'3',204.989,21.66,127.0,-68.3,1.02,0,100.0,0.0,1.0,0.0,0.0,1.0,1,100.0,205.0,50.0,1,1.0,0,1.0,0,1.0,0,1.0,0,1.0
75464,'1',174.991,-31.28,84.8,-58.3,1.0,0,100.0,0.0,1.0,0.0,0.0,1.0,1,100.0,175.0,51.0,1,1.0,0,1.0,0,1.0,0,1.0,0,1.0
75464,'10',174.991,-31.28,84.8,-58.3,1.0,0,100.0,0.0,1.0,0.0,0.0,1.0,1,100.0,175.0,68.25,1,1.0,0,1.0,0,1.0,0,1.0,0,1.0
75464,'2',174.991,-31.28,84.8,-58.3,1.0,0,100.0,0.0,1.0,0.0,0.0,1.0,1,100.0,175.0,51.0,1,1.0,0,1.0,0,1.0,0,1.0,0,1.0
75464,'3',174.991,-31.28,84.8,-58.3,1.0,0,100.0,0.0,1.0,0.0,0.0,1.0,1,100.0,175.0,51.0,1,1.0,0,1.0,0,1.0,0,1.0,0,1.0
75464,'4',174.991,-31.28,84.8,-58.3,1.0,0,100.0,0.0,1.0,0.0,0.0,1.0,1,100.0,175.0,51.0,1,1.0,0,1.0,0,1.0,0,1.0,0,1.0
75464,'5',174.991,-31.28,84.8,-58.3,1.0,0,100.0,0.0,1.0,0.0,0.0,1.0,1,100.0,175.0,51.0,1,1.0,0,1.0,0,1.0,0,1.0,0,1.0
75464,'6',174.991,-31.28,84.8,-58.3,1.0,0,100.0,0.0,1.0,0.0,0.0,1.0,1,100.0,175.0,51.0,1,1.0,0,1.0,0,1.0,0,1.0,0,1.0
75464,'7',174.991,-31.28,84.8,-58.3,1.0,0,100.0,0.0,1.0,0.0,0.0,1.0,1,100.0,175.0,51.0,1,1.0,0,1.0,0,1.0,0,1.0,0,1.0
75464,'8',174.991,-31.28,84.8,-58.3,1.0,0,100.0,0.0,1.0,0.0,0.0,1.0,1,100.0,175.0,51.0,1,1.0,0,1.0,0,1.0,0,1.0,0,1.0
75464,'9',174.991,-31.28,84.8,-58.3,1.0,0,100.0,0.0,1.0,0.0,0.0,1.0,1,100.0,175.0,51.0,1,1.0,0,1.0,0,1.0,0,1.0,0,1.0
75465,'1',163.191,-42.926,101.1,-54.4,1.0,0,100.0,0.0,1.0,0.0,0.0,1.0,1,100.0,163.2,65.0,1,1.0,0,1.0,0,1.0,0,1.0,0,1.0
75468,'1',179.491,15.546,111.2,-59.8,1.02,0,100.0,0.0,1.0,0.0,0.0,1.0,1,100.0,179.5,64.0,1,1.0,0,1.0,0,1.0,0,1.0,0,1.0
75468,'10',463.976,15.546,224.7,-154.7,1.02,0,100.0,0.0,1.0,0.0,0.0,1.0,1,100.0,464.0,155.0,1,1.0,0,1.0,0,1.0,0,1.0,0,1.0
75468,'2',113.594,15.546,70.4,-37.9,1.02,0,100.0,0.0,1.0,0.0,0.0,1.0,1,100.0,113.6,36.0,1,1.0,0,1.0,0,1.0,0,1.0,0,1.0
75468,'3',122.994,15.546,76.2,-41.0,1.02,0,100.0,0.0,1.0,0.0,0.0,1.0,1,100.0,123.0,50.0,1,1.0,0,1.0,0,1.0,0,1.0,0,1.0
75468,'4',125.993,15.546,78.1,-42.0,1.02,0,100.0,0.0,1.0,0.0,0.0,1.0,1,100.0,126.0,50.0,1,1.0,0,1.0,0,1.0,0,1.0,0,1.0
75468,'5',125.993,15.546,78.1,-42.0,1.02,0,100.0,0.0,1.0,0.0,0.0,1.0,1,100.0,126.0,50.0,1,1.0,0,1.0,0,1.0,0,1.0,0,1.0
75468,'6',125.993,15.546,78.1,-42.0,1.02,0,100.0,0.0,1.0,0.0,0.0,1.0,1,100.0,126.0,50.0,1,1.0,0,1.0,0,1.0,0,1.0,0,1.0
75468,'7',125.993,15.546,78.1,-42.0,1.02,0,100.0,0.0,1.0,0.0,0.0,1.0,1,100.0,126.0,50.0,1,1.0,0,1.0,0,1.0,0,1.0,0,1.0
75468,'8',142.591,15.546,109.6,-58.9,1.02,0,100.0,0.0,1.0,0.0,0.0,1.0,1,100.0,176.8,105.0,1,1.0,0,1.0,0,1.0,0,1.0,0,1.0
75468,'9',123.591,15.546,109.6,-58.9,1.02,0,100.0,0.0,1.0,0.0,0.0,1.0,1,100.0,176.8,90.0,1,1.0,0,1.0,0,1.0,0,1.0,0,1.0
75471,'2',230.388,4.68,85.1,-85.1,1.02,0,100.0,0.0,1.0,0.0,0.0,1.0,1,100.0,230.4,100.0,1,1.0,0,1.0,0,1.0,0,1.0,0,1.0
75474,'1',97.995,22.731,47.5,-32.7,1.02,0,100.0,0.0,1.0,0.0,0.0,1.0,1,100.0,98.0,55.0,1,1.0,0,1.0,0,1.0,0,1.0,0,1.0
75474,'2',97.995,22.731,47.5,-32.7,1.02,0,100.0,0.0,1.0,0.0,0.0,1.0,1,100.0,98.0,55.0,1,1.0,0,1.0,0,1.0,0,1.0,0,1.0
75474,'3',107.994,22.731,52.3,-36.0,1.02,0,100.0,0.0,1.0,0.0,0.0,1.0,1,100.0,108.0,55.0,1,1.0,0,1.0,0,1.0,0,1.0,0,1.0
75474,'4',107.994,22.731,52.3,-36.0,1.02,0,100.0,0.0,1.0,0.0,0.0,1.0,1,100.0,108.0,55.0,1,1.0,0,1.0,0,1.0,0,1.0,0,1.0
75474,'5',97.995,22.731,60.7,-32.7,1.02,0,100.0,0.0,1.0,0.0,0.0,1.0,1,100.0,98.0,30.0,1,1.0,0,1.0,0,1.0,0,1.0,0,1.0
75474,'6',97.995,22.731,60.7,-32.7,1.02,0,100.0,0.0,1.0,0.0,0.0,1.0,1,100.0,98.0,0.0,1,1.0,0,1.0,0,1.0,0,1.0,0,1.0
75474,'7',30.781,22.731,72.2,-49.7,1.02,0,100.0,0.0,1.0,0.0,0.0,1.0,1,100.0,149.0,3.0,1,1.0,0,1.0,0,1.0,0,1.0,0,1.0
75474,'8',80.781,22.731,72.2,-49.7,1.02,0,100.0,0.0,1.0,0.0,0.0,1.0,1,100.0,149.0,3.0,1,1.0,0,1.0,0,1.0,0,1.0,0,1.0
75474,'9',30.781,22.731,72.2,-49.7,1.02,0,100.0,0.0,1.0,0.0,0.0,1.0,1,100.0,149.0,3.0,1,1.0,0,1.0,0,1.0,0,1.0,0,1.0
75476,'1',87.995,13.519,42.6,-29.3,1.0,0,100.0,0.0,1.0,0.0,0.0,1.0,1,100.0,88.0,15.0,1,1.0,0,1.0,0,1.0,0,1.0,0,1.0
75477,'1',85.995,15.662,41.7,-28.7,1.02,0,100.0,0.0,1.0,0.0,0.0,1.0,1,100.0,86.0,45.0,1,1.0,0,1.0,0,1.0,0,1.0,0,1.0
75477,'2',85.995,15.662,41.7,-28.7,1.02,0,100.0,0.0,1.0,0.0,0.0,1.0,1,100.0,86.0,45.0,1,1.0,0,1.0,0,1.0,0,1.0,0,1.0
75477,'3',85.995,15.662,41.7,-28.7,1.02,0,100.0,0.0,1.0,0.0,0.0,1.0,1,100.0,86.0,45.0,1,1.0,0,1.0,0,1.0,0,1.0,0,1.0
75477,'4',85.995,15.662,41.7,-28.7,1.02,0,100.0,0.0,1.0,0.0,0.0,1.0,1,100.0,86.0,45.0,1,1.0,0,1.0,0,1.0,0,1.0,0,1.0
75477,'5',85.995,15.662,41.7,-28.7,1.02,0,100.0,0.0,1.0,0.0,0.0,1.0,1,100.0,86.0,45.0,1,1.0,0,1.0,0,1.0,0,1.0,0,1.0
75477,'6',85.995,15.662,41.7,-28.7,1.02,0,100.0,0.0,1.0,0.0,0.0,1.0,1,100.0,86.0,45.0,1,1.0,0,1.0,0,1.0,0,1.0,0,1.0
75477,'7',85.995,15.662,41.7,-28.7,1.02,0,100.0,0.0,1.0,0.0,0.0,1.0,1,100.0,86.0,45.0,1,1.0,0,1.0,0,1.0,0,1.0,0,1.0
75477,'8',85.995,15.662,41.7,-28.7,1.02,0,100.0,0.0,1.0,0.0,0.0,1.0,1,100.0,86.0,45.0,1,1.0,0,1.0,0,1.0,0,1.0,0,1.0
75479,'1',59.997,37.2,37.2,-20.0,1.02,0,100.0,0.0,1.0,0.0,0.0,1.0,1,100.0,60.0,15.0,1,1.0,0,1.0,0,1.0,0,1.0,0,1.0
75479,'2',59.997,37.2,37.2,-20.0,1.02,0,100.0,0.0,1.0,0.0,0.0,1.0,1,100.0,60.0,15.0,1,1.0,0,1.0,0,1.0,0,1.0,0,1.0
75484,'1',32.5,13.048,15.7,-10.8,1.02,0,100.0,0.0,1.0,0.0,0.0,1.0,1,100.0,32.5,32.5,1,1.0,0,1.0,0,1.0,0,1.0,0,1.0
75484,'2',32.5,13.048,15.7,-10.8,1.02,0,100.0,0.0,1.0,0.0,0.0,1.0,1,100.0,32.5,32.5,1,1.0,0,1.0,0,1.0,0,1.0,0,1.0
75484,'3',32.5,13.048,15.7,-10.8,1.02,0,100.0,0.0,1.0,0.0,0.0,1.0,1,100.0,32.5,32.5,1,1.0,0,1.0,0,1.0,0,1.0,0,1.0
75484,'4',32.5,13.048,15.7,-10.8,1.02,0,100.0,0.0,1.0,0.0,0.0,1.0,1,100.0,32.5,32.5,1,1.0,0,1.0,0,1.0,0,1.0,0,1.0
75485,'1',9.4,1.566,7.067,-3.133,1.02,0,100.0,0.0,1.0,0.0,0.0,1.0,1,100.0,9.4,2.0,1,1.0,0,1.0,0,1.0,0,1.0,0,1.0
75485,'2',9.4,1.566,7.067,-3.133,1.02,0,100.0,0.0,1.0,0.0,0.0,1.0,1,100.0,9.4,2.0,1,1.0,0,1.0,0,1.0,0,1.0,0,1.0
75485,'3',9.4,1.566,7.067,-3.133,1.02,0,100.0,0.0,1.0,0.0,0.0,1.0,1,100.0,9.4,2.0,1,1.0,0,1.0,0,1.0,0,1.0,0,1.0
75486,'1',80.996,25.334,50.2,-27.0,1.02,0,100.0,0.0,1.0,0.0,0.0,1.0,1,100.0,81.0,24.0,1,1.0,0,1.0,0,1.0,0,1.0,0,1.0
...
0 / END OF GENERATOR DATA BEGIN BRANCH DATA
35308,36653,'1',0.000996849,0.00712763,0.260677,795.0,795.0,795.0,0.0,0.0,0.0,0.0,1,1,14.97,1,1.0,0,1.0,0,1.0,0,1.0
35308,75572,'1',0.000858146,0.00613538,0.224361,795.0,795.0,795.0,0.0,0.0,0.0,0.0,1,1,12.88,1,1.0,0,1.0,0,1.0,0,1.0
35308,75628,'1',0.00141505,0.0101211,0.370328,795.0,795.0,795.0,0.0,0.0,0.0,0.0,1,1,21.26,1,1.0,0,1.0,0,1.0,0,1.0
35309,37399,'1',0.000342626,0.00634921,0.419454,1216.0,1216.0,1216.0,0.0,0.0,0.0,0.0,1,1,17.98,1,1.0,0,1.0,0,1.0,0,1.0
35309,37480,'1',0.00120626,0.021683,1.55189,1216.0,1216.0,1216.0,0.0,0.0,0.0,0.0,1,1,63.98,1,1.0,0,1.0,0,1.0,0,1.0
35309,37678,'1',0.000627527,0.0112331,0.799013,1801.0,1801.0,1801.0,0.0,0.0,0.0,0.0,1,1,33.01,1,1.0,0,1.0,0,1.0,0,1.0
35309,75435,'1',1e-07,0.0001,0.0,1450.0,1812.5,2175.0,0.0,0.0,0.0,0.0,1,1,0.01,1,1.0,0,1.0,0,1.0,0,1.0
35309,75435,'2',1e-07,0.0001,0.0,1450.0,1812.5,2175.0,0.0,0.0,0.0,0.0,1,1,0.01,1,1.0,0,1.0,0,1.0,0,1.0
35309,75435,'3',1e-07,0.0001,0.0,1450.0,1812.5,2175.0,0.0,0.0,0.0,0.0,1,1,0.01,1,1.0,0,1.0,0,1.0,0,1.0
35310,37534,'1',0.000142702,0.00264344,0.174541,2639.0,2639.0,2639.0,0.0,0.0,0.0,0.0,1,1,7.49,1,1.0,0,1.0,0,1.0,0,1.0
35310,75439,'1',1e-07,0.0001,0.0,1350.0,1687.5,2025.0,0.0,0.0,0.0,0.0,1,1,0.01,1,1.0,0,1.0,0,1.0,0,1.0
35310,75439,'2',1e-07,0.0001,0.0,1350.0,1687.5,2025.0,0.0,0.0,0.0,0.0,1,1,0.01,1,1.0,0,1.0,0,1.0,0,1.0
35311,36648,'1',0.000504187,0.00902042,0.641111,1801.0,1801.0,1801.0,0.0,0.0,0.0,0.0,1,1,26.49,1,1.0,0,1.0,0,1.0,0,1.0
35311,36774,'1',0.000128692,0.00230036,0.163273,1925.0,1925.0,1925.0,0.0,0.0,0.0,0.0,1,1,6.75,1,1.0,0,1.0,0,1.0,0,1.0
35311,36974,'1',0.000139305,0.00258051,0.170384,1273.0,1273.0,1273.0,0.0,0.0,0.0,0.0,1,1,7.31,1,1.0,0,1.0,0,1.0,0,1.0
35312,37031,'1',0.00126359,0.0227264,1.62794,1216.0,1216.0,1216.0,0.0,0.0,0.0,0.0,1,1,67.1,1,1.0,0,1.0,0,1.0,0,1.0
35312,37069,'1',0.000789981,0.0146676,0.971817,1216.0,1216.0,1216.0,0.0,0.0,0.0,0.0,1,1,41.63,1,1.0,0,1.0,0,1.0,0,1.0
35312,37680,'1',0.000874784,0.0156817,1.11783,1216.0,1216.0,1216.0,0.0,0.0,0.0,0.0,1,1,46.15,1,1.0,0,1.0,0,1.0,0,1.0
35313,37017,'1',0.000697634,0.00498739,0.18236,795.0,795.0,795.0,0.0,0.0,0.0,0.0,1,1,10.47,1,1.0,0,1.0,0,1.0,0,1.0
35313,37254,'1',3.55042e-05,0.000322542,0.0121614,907.0,907.0,907.0,0.0,0.0,0.0,0.0,1,1,0.69,1,1.0,0,1.0,0,1.0,0,1.0
35313,37276,'1',0.000654348,0.00467785,0.171037,795.0,795.0,795.0,0.0,0.0,0.0,0.0,1,1,9.82,1,1.0,0,1.0,0,1.0,0,1.0
35313,37281,'1',0.000489084,0.0056055,0.219983,1067.0,1067.0,1067.0,0.0,0.0,0.0,0.0,1,1,12.19,1,1.0,0,1.0,0,1.0,0,1.0
35314,36648,'1',0.000887923,0.0159187,1.13488,1216.0,1216.0,1216.0,0.0,0.0,0.0,0.0,1,1,46.85,1,1.0,0,1.0,0,1.0,0,1.0
35314,37471,'1',6.94343e-05,0.00124107,0.0880822,1216.0,1216.0,1216.0,0.0,0.0,0.0,0.0,1,1,3.64,1,1.0,0,1.0,0,1.0,0,1.0
35314,37617,'1',0.000997355,0.0178951,1.27731,1216.0,1216.0,1216.0,0.0,0.0,0.0,0.0,1,1,52.71,1,1.0,0,1.0,0,1.0,0,1.0
35314,75449,'1',1e-07,0.0001,0.0,800.0,1000.0,1200.0,0.0,0.0,0.0,0.0,1,1,0.01,1,1.0,0,1.0,0,1.0,0,1.0
35314,75449,'2',1e-07,0.0001,0.0,800.0,1000.0,1200.0,0.0,0.0,0.0,0.0,1,1,0.01,1,1.0,0,1.0,0,1.0,0,1.0
35315,36833,'1',0.00146191,0.0104567,0.382633,795.0,795.0,795.0,0.0,0.0,0.0,0.0,1,1,21.97,1,1.0,0,1.0,0,1.0,0,1.0
35316,36685,'1',0.000211073,0.00377329,0.267861,1216.0,1216.0,1216.0,0.0,0.0,0.0,0.0,1,1,11.07,1,1.0,0,1.0,0,1.0,0,1.0
35316,37467,'1',0.000472255,0.00875489,0.578731,1216.0,1216.0,1216.0,0.0,0.0,0.0,0.0,1,1,24.81,1,1.0,0,1.0,0,1.0,0,1.0
35316,75454,'1',1e-07,0.0001,0.0,1250.0,1562.5,1875.0,0.0,0.0,0.0,0.0,1,1,0.01,1,1.0,0,1.0,0,1.0,0,1.0
35317,36685,'1',0.000183845,0.00328642,0.233284,1216.0,1216.0,1216.0,0.0,0.0,0.0,0.0,1,1,9.64,1,1.0,0,1.0,0,1.0,0,1.0
35317,37467,'1',0.000498211,0.00891331,0.633477,1216.0,1216.0,1216.0,0.0,0.0,0.0,0.0,1,1,26.18,1,1.0,0,1.0,0,1.0,0,1.0
35317,75456,'1',1e-07,0.0001,0.0,1250.0,1562.5,1875.0,0.0,0.0,0.0,0.0,1,1,0.01,1,1.0,0,1.0,0,1.0,0,1.0
35318,37181,'1',0.000161145,0.00288054,0.204464,1925.0,1925.0,1925.0,0.0,0.0,0.0,0.0,1,1,8.45,1,1.0,0,1.0,0,1.0,0,1.0
35318,37534,'1',0.000113461,0.00202806,0.143944,2639.0,2639.0,2639.0,0.0,0.0,0.0,0.0,1,1,5.95,1,1.0,0,1.0,0,1.0,0,1.0
35318,75458,'1',1e-07,0.0001,0.0,1250.0,1562.5,1875.0,0.0,0.0,0.0,0.0,1,1,0.01,1,1.0,0,1.0,0,1.0,0,1.0
35318,75458,'2',1e-07,0.0001,0.0,1250.0,1562.5,1875.0,0.0,0.0,0.0,0.0,1,1,0.01,1,1.0,0,1.0,0,1.0,0,1.0
35319,37069,'1',0.000283058,0.00506083,0.359334,1216.0,1216.0,1216.0,0.0,0.0,0.0,0.0,1,1,14.85,1,1.0,0,1.0,0,1.0,0,1.0
35320,37480,'1',0.000476263,0.00851995,0.605446,1216.0,1216.0,1216.0,0.0,0.0,0.0,0.0,1,1,25.02,1,1.0,0,1.0,0,1.0,0,1.0
35321,37409,'1',0.000200416,0.00358272,0.254326,1801.0,1801.0,1801.0,0.0,0.0,0.0,0.0,1,1,10.51,1,1.0,0,1.0,0,1.0,0,1.0
35321,37422,'1',6.61987e-05,0.0012262,0.080956,1632.0,1632.0,1632.0,0.0,0.0,0.0,0.0,1,1,3.47,1,1.0,0,1.0,0,1.0,0,1.0
35322,37275,'1',6.66756e-05,0.00123504,0.0815394,1756.0,1756.0,1756.0,0.0,0.0,0.0,0.0,1,1,3.5,1,1.0,0,1.0,0,1.0,0,1.0
35322,75465,'1',1e-07,0.0001,0.0,900.0,1125.0,1350.0,0.0,0.0,0.0,0.0,1,1,0.01,1,1.0,0,1.0,0,1.0,0,1.0
35323,36835,'1',0.000167828,0.00119963,0.0438542,795.0,795.0,795.0,0.0,0.0,0.0,0.0,1,1,2.52,1,1.0,0,1.0,0,1.0,0,1.0
35323,37531,'1',0.00216657,0.0155097,0.568207,795.0,795.0,795.0,0.0,0.0,0.0,0.0,1,1,32.61,1,1.0,0,1.0,0,1.0,0,1.0
35323,76012,'1',0.00282878,0.0207985,0.724361,795.0,795.0,795.0,0.0,0.0,0.0,0.0,1,1,42.66,1,1.0,0,1.0,0,1.0,0,1.0
35324,36691,'1',0.000215821,0.00385821,0.273892,1216.0,1216.0,1216.0,0.0,0.0,0.0,0.0,1,1,11.32,1,1.0,0,1.0,0,1.0,0,1.0
35324,36976,'1',9.87221e-05,0.0017646,0.125242,1216.0,1216.0,1216.0,0.0,0.0,0.0,0.0,1,1,5.18,1,1.0,0,1.0,0,1.0,0,1.0
35324,37282,'1',0.000199857,0.00357273,0.253617,1216.0,1216.0,1216.0,0.0,0.0,0.0,0.0,1,1,10.48,1,1.0,0,1.0,0,1.0,0,1.0
35325,37594,'1',6.51401e-05,0.00116431,0.0826343,1216.0,1216.0,1216.0,0.0,0.0,0.0,0.0,1,1,3.42,1,1.0,0,1.0,0,1.0,0,1.0
35325,39084,'1',0.00132786,0.0228344,1.79552,1216.0,1216.0,1216.0,0.0,0.0,0.0,0.0,1,1,70.6,1,1.0,0,1.0,0,1.0,0,1.0
35325,75470,'1',1e-07,0.0001,0.0,800.0,1000.0,1200.0,0.0,0.0,0.0,0.0,1,1,0.01,1,1.0,0,1.0,0,1.0,0,1.0
35325,75470,'2',1e-07,0.0001,0.0,800.0,1000.0,1200.0,0.0,0.0,0.0,0.0,1,1,0.01,1,1.0,0,1.0,0,1.0,0,1.0
35326,37078,'1',0.02387,0.0955749,0.0323083,175.0,175.0,175.0,0.0,0.0,0.0,0.0,1,1,19.35,1,1.0,0,1.0,0,1.0,0,1.0
35327,36811,'1',0.000520536,0.00505227,0.192624,947.0,947.0,947.0,0.0,0.0,0.0,0.0,1,1,10.82,1,1.0,0,1.0,0,1.0,0,1.0
35327,76057,'1',0.00606811,0.0439154,1.63431,795.0,795.0,795.0,0.0,0.0,0.0,0.0,1,1,93.29,1,1.0,0,1.0,0,1.0,0,1.0
35328,36705,'1',0.0353648,0.0865974,0.0237009,118.0,118.0,118.0,0.0,0.0,0.0,0.0,1,1,15.73,1,1.0,0,1.0,0,1.0,0,1.0
35328,37013,'1',0.0059117,0.0227276,0.00431599,142.0,142.0,142.0,0.0,0.0,0.0,0.0,1,1,3.44,1,1.0,0,1.0,0,1.0,0,1.0
35329,37409,'1',0.000229782,0.00410787,0.291626,1216.0,1216.0,1216.0,0.0,0.0,0.0,0.0,1,1,12.06,1,1.0,0,1.0,0,1.0,0,1.0
35329,37460,'1',1.29368e-05,0.000231228,0.0164105,2213.0,2213.0,2213.0,0.0,0.0,0.0,0.0,1,1,0.68,1,1.0,0,1.0,0,1.0,0,1.0
35329,37461,'1',0.000102296,0.00182849,0.129777,1216.0,1216.0,1216.0,0.0,0.0,0.0,0.0,1,1,5.37,1,1.0,0,1.0,0,1.0,0,1.0
35330,37091,'1',0.00143939,0.00484963,0.00120524,142.0,142.0,142.0,0.0,0.0,0.0,0.0,1,1,0.84,1,1.0,0,1.0,0,1.0,0,1.0
35330,37092,'1',0.00393534,0.0107142,0.00236045,118.0,118.0,118.0,0.0,0.0,0.0,0.0,1,1,1.75,1,1.0,0,1.0,0,1.0,0,1.0
35331,37508,'1',0.00278279,0.0129032,0.00428842,191.0,191.0,191.0,0.0,0.0,0.0,0.0,1,1,2.58,1,1.0,0,1.0,0,1.0,0,1.0
35331,37510,'1',0.0186721,0.0760002,0.0185224,159.0,159.0,159.0,0.0,0.0,0.0,0.0,1,1,13.03,1,1.0,0,1.0,0,1.0,0,1.0
35331,37533,'1',0.0144201,0.0362505,0.00939188,118.0,118.0,118.0,0.0,0.0,0.0,0.0,1,1,6.41,1,1.0,0,1.0,0,1.0,0,1.0
35332,36616,'1',0.00529408,0.0184504,0.00427816,142.0,142.0,142.0,0.0,0.0,0.0,0.0,1,1,3.08,1,1.0,0,1.0,0,1.0,0,1.0
35332,36617,'1',0.0100975,0.0253831,0.00657606,118.0,118.0,118.0,0.0,0.0,0.0,0.0,1,1,4.49,1,1.0,0,1.0,0,1.0,0,1.0
35332,36969,'1',0.014859,0.0344939,0.0105094,118.0,118.0,118.0,0.0,0.0,0.0,0.0,1,1,6.61,1,1.0,0,1.0,0,1.0,0,1.0
35332,37710,'1',0.00959988,0.024678,0.00611094,118.0,118.0,118.0,0.0,0.0,0.0,0.0,1,1,4.27,1,1.0,0,1.0,0,1.0,0,1.0
35333,37365,'1',0.000209093,0.00373789,0.265346,1216.0,1216.0,1216.0,0.0,0.0,0.0,0.0,1,1,10.97,1,1.0,0,1.0,0,1.0,0,1.0
35333,37594,'1',0.000300653,0.00537563,0.381708,1216.0,1216.0,1216.0,0.0,0.0,0.0,0.0,1,1,15.78,1,1.0,0,1.0,0,1.0,0,1.0
35334,37415,'1',0.000503707,0.00259229,0.00495588,308.0,308.0,308.0,0.0,0.0,0.0,0.0,1,1,1.24,1,1.0,0,1.0,0,1.0,0,1.0
35334,76737,'1',0.0199497,0.105807,0.192573,308.0,308.0,308.0,0.0,0.0,0.0,0.0,1,1,49.61,1,1.0,0,1.0,0,1.0,0,1.0
35335,36823,'1',0.00882349,0.0302688,0.00725168,142.0,142.0,142.0,0.0,0.0,0.0,0.0,1,1,5.13,1,1.0,0,1.0,0,1.0,0,1.0
35335,37610,'1',0.00822482,0.0247562,0.00774518,142.0,142.0,142.0,0.0,0.0,0.0,0.0,1,1,4.78,1,1.0,0,1.0,0,1.0,0,1.0
35335,37611,'1',0.0106513,0.0371223,0.00860817,142.0,142.0,142.0,0.0,0.0,0.0,0.0,1,1,6.19,1,1.0,0,1.0,0,1.0,0,1.0
35335,37612,'1',0.0344299,0.0815603,0.0238689,118.0,118.0,118.0,0.0,0.0,0.0,0.0,1,1,15.32,1,1.0,0,1.0,0,1.0,0,1.0
35335,37692,'1',0.0400586,0.0930342,0.0283592,118.0,118.0,118.0,0.0,0.0,0.0,0.0,1,1,17.82,1,1.0,0,1.0,0,1.0,0,1.0
35336,37404,'1',0.0173105,0.0645544,0.0130476,142.0,142.0,142.0,0.0,0.0,0.0,0.0,1,1,10.07,1,1.0,0,1.0,0,1.0,0,1.0
35336,37654,'1',0.0538472,0.158587,0.0521129,142.0,142.0,142.0,0.0,0.0,0.0,0.0,1,1,31.39,1,1.0,0,1.0,0,1.0,0,1.0
35336,75484,'1',0.00335697,0.0154003,0.00394509,175.0,175.0,175.0,0.0,0.0,0.0,0.0,1,1,2.72,1,1.0,0,1.0,0,1.0,0,1.0
35336,75996,'1',0.0145679,0.0396646,0.00873915,118.0,118.0,118.0,0.0,0.0,0.0,0.0,1,1,6.48,1,1.0,0,1.0,0,1.0,0,1.0
35337,37100,'1',0.001709,0.008145,0.002359,244.0,244.0,268.4,0.0,0.0,0.0,0.0,1,1,1.52,1,1.0,0,1.0,0,1.0,0,1.0
35337,37101,'1',0.001688,0.007145,0.002155,244.0,244.0,244.0,0.0,0.0,0.0,0.0,1,1,1.37,1,1.0,0,1.0,0,1.0,0,1.0
35337,75900,'1',0.00591,0.015865,0.003596,244.0,244.0,244.0,0.0,0.0,0.0,0.0,1,1,2.63,1,1.0,0,1.0,0,1.0,0,1.0
35338,36734,'1',0.00293584,0.0207661,0.176168,549.0,549.0,549.0,0.0,0.0,0.0,0.0,1,1,21.0,1,1.0,0,1.0,0,1.0,0,1.0
35338,75995,'1',0.00127281,0.00872567,0.0787385,549.0,549.0,549.0,0.0,0.0,0.0,0.0,1,1,9.1,1,1.0,0,1.0,0,1.0,0,1.0
35339,36976,'1',9.04912e-05,0.0016762,0.110668,1216.0,1216.0,1216.0,0.0,0.0,0.0,0.0,1,1,4.75,1,1.0,0,1.0,0,1.0,0,1.0
35339,37031,'1',0.00123256,0.0221614,1.58673,1216.0,1216.0,1216.0,0.0,0.0,0.0,0.0,1,1,65.41,1,1.0,0,1.0,0,1.0,0,1.0
35339,37282,'1',0.000195265,0.00349062,0.247785,1216.0,1216.0,1216.0,0.0,0.0,0.0,0.0,1,1,10.24,1,1.0,0,1.0,0,1.0,0,1.0
35340,37434,'1',0.00118975,0.00811511,0.0739817,549.0,549.0,549.0,0.0,0.0,0.0,0.0,1,1,8.5,1,1.0,0,1.0,0,1.0,0,1.0
35340,75649,'1',0.0014996,0.0103792,0.0918717,549.0,549.0,549.0,0.0,0.0,0.0,0.0,1,1,10.72,1,1.0,0,1.0,0,1.0,0,1.0
35341,37069,'1',0.00115204,0.0206978,1.48025,1216.0,1216.0,1216.0,0.0,0.0,0.0,0.0,1,1,61.04,1,1.0,0,1.0,0,1.0,0,1.0
35341,37460,'1',4.78509e-05,0.000886339,0.058517,1216.0,1216.0,1216.0,0.0,0.0,0.0,0.0,1,1,2.51,1,1.0,0,1.0,0,1.0,0,1.0
35342,36917,'1',0.00327518,0.0076025,0.00231611,118.0,118.0,118.0,0.0,0.0,0.0,0.0,1,1,1.46,1,1.0,0,1.0,0,1.0,0,1.0
35377,37461,'1',0.00107443,0.0192901,1.37818,1216.0,1216.0,1216.0,0.0,0.0,0.0,0.0,1,1,56.85,1,1.0,0,1.0,0,1.0,0,1.0
35377,38603,'1',0.000855925,0.0153417,1.09339,4345.0,4345.0,4345.0,0.0,0.0,0.0,0.0,1,1,45.14,1,1.0,0,1.0,0,1.0,0,1.0
35377,38972,'1',0.000358611,0.00641285,0.455456,1216.0,1216.0,1216.0,0.0,0.0,0.0,0.0,1,1,18.83,1,1.0,0,1.0,0,1.0,0,1.0
35377,75490,'1',1e-07,0.0001,0.0,2200.0,2375.0,2650.0,0.0,0.0,0.0,0.0,1,1,0.01,1,1.0,0,1.0,0,1.0,0,1.0
35378,35392,'1',1.45658e-05,0.000260345,0.0184769,1925.0,1925.0,1925.0,0.0,0.0,0.0,0.0,1,1,0.76,1,1.0,0,1.0,0,1.0,0,1.0
35378,39326,'1',0.000286393,0.00530645,0.350495,1216.0,1216.0,1216.0,0.0,0.0,0.0,0.0,1,1,15.03,1,1.0,0,1.0,0,1.0,0,1.0
35378,75493,'1',1e-07,0.0001,0.0,1450.0,1812.5,2175.0,0.0,0.0,0.0,0.0,1,1,0.01,1,1.0,0,1.0,0,1.0,0,1.0
35378,75493,'2',1e-07,0.0001,0.0,1450.0,1812.5,2175.0,0.0,0.0,0.0,0.0,1,1,0.01,1,1.0,0,1.0,0,1.0,0,1.0
35379,38861,'1',3.92654e-05,0.000701822,0.0498093,1273.0,1273.0,1273.0,0.0,0.0,0.0,0.0,1,1,2.06,1,1.0,0,1.0,0,1.0,0,1.0
35379,39326,'1',0.000361236,0.00645983,0.458799,1216.0,1216.0,1216.0,0.0,0.0,0.0,0.0,1,1,18.96,1,1.0,0,1.0,0,1.0,0,1.0
35379,75495,'1',1e-07,0.0001,0.0,1250.0,1562.5,1875.0,0.0,0.0,0.0,0.0,1,1,0.01,1,1.0,0,1.0,0,1.0,0,1.0
35379,75495,'2',1e-07,0.0001,0.0,1250.0,1562.5,1875.0,0.0,0.0,0.0,0.0,1,1,0.01,1,1.0,0,1.0,0,1.0,0,1.0
...